xflr5 v6.57

Plane name :        R23_HS_AG24_216in_AR_12,01
Polar name :        T1-12.0 m/s-VLM2
Freestream speed :  12.000 m/s


   alpha      Beta       CL          CDi        CDv        CD         CY         Cl         Cm         Cn        Cni       QInf        XCP
  -10.000     0.000  -0.820069   0.049588   0.009278   0.058867   0.000000  -0.000000   0.313023   0.000000  -0.000000   12.0000     0.0952
   -9.750     0.000  -0.804533   0.047722   0.009390   0.057113   0.000000  -0.000000   0.308675   0.000000  -0.000000   12.0000     0.0957
   -9.500     0.000  -0.788960   0.045888   0.009658   0.055546   0.000000  -0.000000   0.304318   0.000000   0.000000   12.0000     0.0961
   -9.250     0.000  -0.773349   0.044086   0.010526   0.054612   0.000000  -0.000000   0.299974   0.000000  -0.000000   12.0000     0.0966
   -9.000     0.000  -0.757703   0.042317   0.010722   0.053039   0.000000  -0.000000   0.295580  -0.000000  -0.000000   12.0000     0.0971
   -8.750     0.000  -0.742020   0.040580   0.010503   0.051083   0.000000  -0.000000   0.291150  -0.000000  -0.000000   12.0000     0.0976
   -8.500     0.000  -0.726303   0.038876   0.010295   0.049171   0.000000  -0.000000   0.286706  -0.000000  -0.000000   12.0000     0.0982
   -8.250     0.000  -0.710551   0.037205   0.010096   0.047302   0.000000  -0.000000   0.282249  -0.000000  -0.000000   12.0000     0.0988
   -8.000     0.000  -0.694766   0.035568   0.009907   0.045475   0.000000  -0.000000   0.277778  -0.000000  -0.000000   12.0000     0.0994
   -7.750     0.000  -0.678948   0.033965   0.009727   0.043692   0.000000  -0.000000   0.273294  -0.000000  -0.000000   12.0000     0.1000
   -7.500     0.000  -0.663098   0.032396   0.009555   0.041950   0.000000  -0.000000   0.268797  -0.000000   0.000000   12.0000     0.1007
   -7.250     0.000  -0.647217   0.030861   0.009390   0.040251   0.000000  -0.000000   0.264288  -0.000000   0.000000   12.0000     0.1014
   -7.000     0.000  -0.631306   0.029361   0.009233   0.038594   0.000000  -0.000000   0.259766  -0.000000   0.000000   12.0000     0.1021
   -6.750     0.000  -0.615365   0.027896   0.009084   0.036980   0.000000  -0.000000   0.255232  -0.000000   0.000000   12.0000     0.1029
   -6.500     0.000  -0.599395   0.026467   0.008941   0.035408   0.000000  -0.000000   0.250687  -0.000000   0.000000   12.0000     0.1038
   -6.250     0.000  -0.583397   0.025072   0.008806   0.033879   0.000000  -0.000000   0.246130  -0.000000   0.000000   12.0000     0.1046
   -6.000     0.000  -0.567372   0.023714   0.008679   0.032392   0.000000  -0.000000   0.241562  -0.000000   0.000000   12.0000     0.1056
   -5.750     0.000  -0.551320   0.022391   0.008558   0.030949   0.000000  -0.000000   0.236983  -0.000000   0.000000   12.0000     0.1066
   -5.500     0.000  -0.535242   0.021104   0.008444   0.029549   0.000000  -0.000000   0.232394  -0.000000   0.000000   12.0000     0.1076
   -5.250     0.000  -0.519139   0.019854   0.008339   0.028193   0.000000  -0.000000   0.227795  -0.000000   0.000000   12.0000     0.1088
   -5.000     0.000  -0.503013   0.018641   0.008241   0.026882   0.000000  -0.000000   0.223186  -0.000000   0.000000   12.0000     0.1100
   -4.750     0.000  -0.486862   0.017464   0.008150   0.025614   0.000000  -0.000000   0.218568  -0.000000  -0.000000   12.0000     0.1112
   -4.500     0.000  -0.470690   0.016325   0.008067   0.024392   0.000000  -0.000000   0.213941  -0.000000  -0.000000   12.0000     0.1126
   -4.250     0.000  -0.454495   0.015222   0.007991   0.023213  -0.000000  -0.000000   0.209304  -0.000000  -0.000000   12.0000     0.1141
   -4.000     0.000  -0.438279   0.014157   0.007923   0.022080  -0.000000  -0.000000   0.204660  -0.000000  -0.000000   12.0000     0.1157
   -3.750     0.000  -0.422043   0.013129   0.007863   0.020992  -0.000000  -0.000000   0.200007   0.000000  -0.000000   12.0000     0.1174
   -3.500     0.000  -0.405788   0.012140   0.007809   0.019949  -0.000000  -0.000000   0.195346  -0.000000  -0.000000   12.0000     0.1192
   -3.250     0.000  -0.389514   0.011188   0.007762   0.018950  -0.000000  -0.000000   0.190678   0.000000  -0.000000   12.0000     0.1212
   -3.000     0.000  -0.373223   0.010274   0.007723   0.017997  -0.000000  -0.000000   0.186002   0.000000  -0.000000   12.0000     0.1234
   -2.750     0.000  -0.356914   0.009399   0.007691   0.017089  -0.000000  -0.000000   0.181320   0.000000  -0.000000   12.0000     0.1258
   -2.500     0.000  -0.340589   0.008561   0.007665   0.016227  -0.000000  -0.000000   0.176631   0.000000   0.000000   12.0000     0.1284
   -2.250     0.000  -0.324249   0.007763   0.007648   0.015411  -0.000000  -0.000000   0.171936   0.000000  -0.000000   12.0000     0.1313
   -2.000     0.000  -0.307895   0.007002   0.007639   0.014641  -0.000000  -0.000000   0.167236   0.000000   0.000000   12.0000     0.1345
   -1.750     0.000  -0.291526   0.006281   0.007638   0.013919  -0.000000  -0.000000   0.162529   0.000000  -0.000000   12.0000     0.1381
   -1.500     0.000  -0.275145   0.005599   0.007646   0.013245  -0.000000  -0.000000   0.157818   0.000000  -0.000000   12.0000     0.1421
   -1.250     0.000  -0.258752   0.004955   0.007663   0.012618  -0.000000  -0.000000   0.153101   0.000000   0.000000   12.0000     0.1466
   -1.000     0.000  -0.242347   0.004351   0.007691   0.012042  -0.000000  -0.000000   0.148380   0.000000  -0.000000   12.0000     0.1517
   -0.750     0.000  -0.225933   0.003785   0.007729   0.011514  -0.000000  -0.000000   0.143655   0.000000   0.000000   12.0000     0.1576
   -0.500     0.000  -0.209508   0.003259   0.007781   0.011040  -0.000000  -0.000000   0.138926   0.000000   0.000000   12.0000     0.1644
   -0.250     0.000  -0.193075   0.002772   0.007861   0.010633  -0.000000  -0.000000   0.134193   0.000000  -0.000000   12.0000     0.1723
    0.000     0.000  -0.176634   0.002325   0.007966   0.010291  -0.000000  -0.000000   0.129457   0.000000  -0.000000   12.0000     0.1818
    0.250     0.000  -0.160186   0.001917   0.008105   0.010022  -0.000000  -0.000000   0.124717   0.000000   0.000000   12.0000     0.1931
    0.500     0.000  -0.143731   0.001548   0.008250   0.009798  -0.000000  -0.000000   0.119976   0.000000   0.000000   12.0000     0.2071
    0.750     0.000  -0.127271   0.001219   0.008389   0.009608  -0.000000  -0.000000   0.115231   0.000000   0.000000   12.0000     0.2247
    1.000     0.000  -0.110807   0.000930   0.008520   0.009449  -0.000000  -0.000000   0.110485   0.000000   0.000000   12.0000     0.2475
    1.250     0.000  -0.094338   0.000680   0.008649   0.009329  -0.000000  -0.000000   0.105737   0.000000   0.000000   12.0000     0.2783
    1.500     0.000  -0.077867   0.000470   0.008778   0.009248  -0.000000  -0.000000   0.100987   0.000000  -0.000000   12.0000     0.3222
    1.750     0.000  -0.061394   0.000299   0.008904   0.009204  -0.000000  -0.000000   0.096237   0.000000   0.000000   12.0000     0.3896
    2.000     0.000  -0.044919   0.000168   0.009032   0.009201  -0.000000  -0.000000   0.091486   0.000000  -0.000000   12.0000     0.5064
    2.250     0.000  -0.028444   0.000077   0.009165   0.009242  -0.000000  -0.000000   0.086735   0.000000   0.000000   12.0000     0.7584
    2.500     0.000  -0.011969   0.000025   0.009299   0.009325  -0.000000  -0.000000   0.081984  -0.000000  -0.000000   12.0000     1.7044
    2.750     0.000   0.004504   0.000013   0.009433   0.009446  -0.000000  -0.000000   0.077233   0.000000   0.000000   12.0000    -4.2688
    3.000     0.000   0.020976   0.000041   0.009571   0.009613   0.000000  -0.000000   0.072483  -0.000000   0.000000   12.0000    -0.8607
    3.250     0.000   0.037444   0.000108   0.009718   0.009827   0.000000   0.000000   0.067734   0.000000   0.000000   12.0000    -0.4508
    3.500     0.000   0.053909   0.000215   0.009883   0.010098   0.000000   0.000000   0.062987   0.000000  -0.000000   12.0000    -0.2914
    3.750     0.000   0.070369   0.000361   0.010068   0.010429   0.000000   0.000000   0.058241  -0.000000   0.000000   12.0000    -0.2065
    4.000     0.000   0.086824   0.000547   0.010284   0.010831   0.000000   0.000000   0.053496   0.000000   0.000000   12.0000    -0.1538
    4.250     0.000   0.103273   0.000772   0.010599   0.011371   0.000000   0.000000   0.048751  -0.000000  -0.000000   12.0000    -0.1180
    4.500     0.000   0.119714   0.001036   0.011007   0.012044   0.000000   0.000000   0.044007  -0.000000   0.000000   12.0000    -0.0920
    4.750     0.000   0.136148   0.001340   0.011464   0.012804   0.000000   0.000000   0.039264  -0.000000   0.000000   12.0000    -0.0722
    5.000     0.000   0.152573   0.001683   0.011939   0.013622   0.000000   0.000000   0.034524  -0.000000  -0.000000   12.0000    -0.0567
    5.250     0.000   0.168988   0.002065   0.012399   0.014464   0.000000   0.000000   0.029787  -0.000000  -0.000000   12.0000    -0.0443
    5.500     0.000   0.185394   0.002485   0.012852   0.015337   0.000000   0.000000   0.025054  -0.000000  -0.000000   12.0000    -0.0340
    5.750     0.000   0.201788   0.002945   0.013414   0.016359   0.000000   0.000000   0.020322  -0.000000  -0.000000   12.0000    -0.0254
    6.000     0.000   0.218170   0.003443   0.014156   0.017599   0.000000   0.000000   0.015588  -0.000000   0.000000   12.0000    -0.0181
    6.250     0.000   0.234539   0.003981   0.014777   0.018758   0.000000   0.000000   0.010862  -0.000000  -0.000000   12.0000    -0.0118
    6.500     0.000   0.250895   0.004556   0.015498   0.020054   0.000000   0.000000   0.006137  -0.000000   0.000000   12.0000    -0.0064
    6.750     0.000   0.267236   0.005170   0.016364   0.021534   0.000000   0.000000   0.001411  -0.000000   0.000000   12.0000    -0.0016
    7.000     0.000   0.283562   0.005822   0.017434   0.023256   0.000000   0.000000  -0.003317  -0.000000   0.000000   12.0000     0.0026
    7.250     0.000   0.299872   0.006512   0.018827   0.025339   0.000000   0.000000  -0.008054  -0.000000  -0.000000   12.0000     0.0064
    7.500     0.000   0.316165   0.007241   0.020820   0.028061   0.000000   0.000000  -0.012810  -0.000000  -0.000000   12.0000     0.0098
    7.750     0.000   0.332440   0.008007   0.023985   0.031992   0.000000   0.000000  -0.017612  -0.000000  -0.000000   12.0000     0.0129
    8.000     0.000   0.348697   0.008810   0.028575   0.037385   0.000000   0.000000  -0.022474  -0.000000  -0.000000   12.0000     0.0156
    8.250     0.000   0.364934   0.009651   0.033937   0.043588   0.000000   0.000000  -0.027373  -0.000000   0.000000   12.0000     0.0182
    8.500     0.000   0.381152   0.010529   0.039494   0.050023   0.000000   0.000000  -0.032286  -0.000000  -0.000000   12.0000     0.0205
    8.750     0.000   0.397348   0.011444   0.046170   0.057614   0.000000   0.000000  -0.037256  -0.000000  -0.000000   12.0000     0.0226
    9.000     0.000   0.413523   0.012397   0.055055   0.067452   0.000000   0.000000  -0.042340  -0.000000   0.000000   12.0000     0.0246
    9.250     0.000   0.429676   0.013385   0.065931   0.079316   0.000000   0.000000  -0.047534  -0.000000  -0.000000   12.0000     0.0264
    9.500     0.000   0.445805   0.014410   0.079297   0.093707   0.000000   0.000000  -0.052872  -0.000000  -0.000000   12.0000     0.0281
    9.750     0.000   0.461910   0.015472   0.090726   0.106198   0.000000   0.000000  -0.058134  -0.000000  -0.000000   12.0000     0.0296
   10.000     0.000   0.477990   0.016569   0.100494   0.117063   0.000000   0.000000  -0.063327   0.000000  -0.000000   12.0000     0.0311
   10.250     0.000   0.494045   0.017702   0.110264   0.127966   0.000000   0.000000  -0.068534   0.000000   0.000000   12.0000     0.0324
   10.500     0.000   0.510073   0.018871   0.120280   0.139151   0.000000   0.000000  -0.073769   0.000000   0.000000   12.0000     0.0337
   10.750     0.000   0.526074   0.020074   0.129678   0.149752   0.000000   0.000000  -0.078983  -0.000000  -0.000000   12.0000     0.0349
   11.000     0.000   0.542048   0.021313   0.138415   0.159729   0.000000   0.000000  -0.084170  -0.000000   0.000000   12.0000     0.0361
   11.250     0.000   0.557992   0.022587   0.146350   0.168937   0.000000   0.000000  -0.089319   0.000000  -0.000000   12.0000     0.0371
   11.500     0.000   0.573907   0.023895   0.154218   0.178113   0.000000   0.000000  -0.094472   0.000000  -0.000000   12.0000     0.0382
   11.750     0.000   0.589792   0.025237   0.161612   0.186849   0.000000   0.000000  -0.099602  -0.000000  -0.000000   12.0000     0.0391
   12.000     0.000   0.605646   0.026613   0.169270   0.195883   0.000000   0.000000  -0.104754  -0.000000  -0.000000   12.0000     0.0400
   12.250     0.000   0.621468   0.028023   0.176817   0.204840   0.000000   0.000000  -0.109904  -0.000000  -0.000000   12.0000     0.0409
   12.500     0.000   0.637258   0.029466   0.183974   0.213440   0.000000   0.000000  -0.115034  -0.000000   0.000000   12.0000     0.0417
   12.750     0.000   0.653014   0.030942   0.190608   0.221550   0.000000   0.000000  -0.120132  -0.000000  -0.000000   12.0000     0.0425


