xflr5 v6.57

Plane name :        R23_LR315_192in_AR_10,06
Polar name :        R23_LR315_192in_AR_10,06_TX-12.0 m/s-VLM2
Freestream speed :  12.000 m/s


   alpha      Beta       CL          CDi        CDv        CD         CY         Cl         Cm         Cn        Cni       QInf        XCP
  -10.000     0.000   0.125042   0.000565   0.129551   0.130116   0.000000   0.000000  -0.350841   0.000000   0.000000   12.0000     1.4714
   -9.750     0.000   0.147296   0.000756   0.127611   0.128368   0.000000   0.000000  -0.359564   0.000000   0.000000   12.0000     1.2769
   -9.500     0.000   0.169550   0.000979   0.125648   0.126627   0.000000   0.000000  -0.368288   0.000000   0.000000   12.0000     1.1334
   -9.250     0.000   0.191804   0.001233   0.123368   0.124601   0.000000   0.000000  -0.377025   0.000000   0.000000   12.0000     1.0232
   -9.000     0.000   0.214057   0.001518   0.120361   0.121879   0.000000   0.000000  -0.385798   0.000000   0.000000   12.0000     0.9359
   -8.750     0.000   0.236308   0.001835   0.116815   0.118650   0.000000   0.000000  -0.394598   0.000000   0.000000   12.0000     0.8651
   -8.500     0.000   0.258556   0.002183   0.113127   0.115310   0.000000   0.000000  -0.403405   0.000000   0.000000   12.0000     0.8064
   -8.250     0.000   0.280802   0.002563   0.109147   0.111710   0.000000   0.000000  -0.412219   0.000000   0.000000   12.0000     0.7570
   -8.000     0.000   0.303042   0.002974   0.104495   0.107469   0.000000   0.000000  -0.421056   0.000000   0.000000   12.0000     0.7149
   -7.750     0.000   0.325278   0.003417   0.099022   0.102439   0.000000   0.000000  -0.429933   0.000000   0.000000   12.0000     0.6785
   -7.500     0.000   0.347508   0.003891   0.093724   0.097615   0.000000   0.000000  -0.438787   0.000000   0.000000   12.0000     0.6468
   -7.250     0.000   0.369731   0.004397   0.088436   0.092833   0.000000   0.000000  -0.447629   0.000000   0.000000   12.0000     0.6189
   -7.000     0.000   0.391946   0.004934   0.084043   0.088977   0.000000   0.000000  -0.456421   0.000000   0.000000   12.0000     0.5941
   -6.750     0.000   0.414153   0.005503   0.077986   0.083489   0.000000   0.000000  -0.465256   0.000000   0.000000   12.0000     0.5720
   -6.500     0.000   0.436351   0.006103   0.072549   0.078651   0.000000   0.000000  -0.474065   0.000000   0.000000   12.0000     0.5522
   -6.250     0.000   0.458538   0.006734   0.067359   0.074094   0.000000   0.000000  -0.482840   0.000000   0.000000   12.0000     0.5343
   -6.000     0.000   0.480715   0.007397   0.063189   0.070586   0.000000   0.000000  -0.491570   0.000000   0.000000   12.0000     0.5180
   -5.750     0.000   0.502880   0.008091   0.059864   0.067955   0.000000   0.000000  -0.500257   0.000000   0.000000   12.0000     0.5032
   -5.500     0.000   0.525032   0.008817   0.056427   0.065244   0.000000   0.000000  -0.508929   0.000000   0.000000   12.0000     0.4896
   -5.250     0.000   0.547170   0.009573   0.052894   0.062467   0.000000   0.000000  -0.517589   0.000000   0.000000   12.0000     0.4772
   -5.000     0.000   0.569295   0.010361   0.050891   0.061252   0.000000   0.000000  -0.526186   0.000000   0.000000   12.0000     0.4657
   -4.750     0.000   0.591404   0.011180   0.048452   0.059632   0.000000   0.000000  -0.534786   0.000000   0.000000   12.0000     0.4550
   -4.500     0.000   0.613497   0.012030   0.045912   0.057942   0.000000   0.000000  -0.543376   0.000000   0.000000   12.0000     0.4452
   -4.250     0.000   0.635574   0.012910   0.043573   0.056483   0.000000   0.000000  -0.551943   0.000000   0.000000   12.0000     0.4360
   -4.000     0.000   0.657632   0.013822   0.041477   0.055300   0.000000   0.000000  -0.560492   0.000000   0.000000   12.0000     0.4274
   -3.750     0.000   0.679673   0.014764   0.039619   0.054383   0.000000   0.000000  -0.569024   0.000000   0.000000   12.0000     0.4194
   -3.500     0.000   0.701694   0.015737   0.037682   0.053420   0.000000   0.000000  -0.577541   0.000000   0.000000   12.0000     0.4120
   -3.250     0.000   0.723695   0.016741   0.035225   0.051966   0.000000   0.000000  -0.586054   0.000000   0.000000   12.0000     0.4049
   -3.000     0.000   0.745675   0.017775   0.032669   0.050444   0.000000   0.000000  -0.594554   0.000000   0.000000   12.0000     0.3983
   -2.750     0.000   0.767633   0.018839   0.029956   0.048795   0.000000   0.000000  -0.603039   0.000000   0.000000   12.0000     0.3921
   -2.500     0.000   0.789569   0.019934   0.027392   0.047325   0.000000   0.000000  -0.611505   0.000000   0.000000   12.0000     0.3862
   -2.250     0.000   0.811481   0.021058   0.025694   0.046753   0.000000   0.000000  -0.619941   0.000000   0.000000   12.0000     0.3806
   -2.000     0.000   0.833370   0.022213   0.024555   0.046768   0.000000   0.000000  -0.628353   0.000000   0.000000   12.0000     0.3754
   -1.750     0.000   0.855233   0.023397   0.023350   0.046746   0.000000   0.000000  -0.636751   0.000000   0.000000   12.0000     0.3704
   -1.500     0.000   0.877070   0.024611   0.022247   0.046858   0.000000   0.000000  -0.645131   0.000000   0.000000   12.0000     0.3657
   -1.250     0.000   0.898881   0.025854   0.020904   0.046758   0.000000   0.000000  -0.653497   0.000000   0.000000   12.0000     0.3612
   -1.000     0.000   0.920665   0.027127   0.020001   0.047128   0.000000   0.000000  -0.661843   0.000000   0.000000   12.0000     0.3569
   -0.750     0.000   0.942420   0.028429   0.019243   0.047672   0.000000   0.000000  -0.670170   0.000000   0.000000   12.0000     0.3528
   -0.500     0.000   0.964146   0.029760   0.018716   0.048476   0.000000   0.000000  -0.678478   0.000000   0.000000   12.0000     0.3489
   -0.250     0.000   0.985842   0.031119   0.018366   0.049485   0.000000   0.000000  -0.686769   0.000000   0.000000   12.0000     0.3452
    0.000     0.000   1.007508   0.032508   0.018102   0.050610   0.000000   0.000000  -0.695042   0.000000   0.000000   12.0000     0.3416
    0.250     0.000   1.029142   0.033925   0.017848   0.051773   0.000000   0.000000  -0.703298  -0.000000   0.000000   12.0000     0.3382
    0.500     0.000   1.050744   0.035370   0.017556   0.052926   0.000000   0.000000  -0.711536   0.000000   0.000000   12.0000     0.3350
    0.750     0.000   1.072313   0.036843   0.017339   0.054183   0.000000   0.000000  -0.719756   0.000000   0.000000   12.0000     0.3318
    1.000     0.000   1.093848   0.038344   0.017155   0.055500   0.000000   0.000000  -0.727956  -0.000000   0.000000   12.0000     0.3289
    1.250     0.000   1.115349   0.039873   0.017050   0.056923   0.000000   0.000000  -0.736138  -0.000000   0.000000   12.0000     0.3260
    1.500     0.000   1.136814   0.041430   0.016860   0.058289   0.000000   0.000000  -0.744299  -0.000000   0.000000   12.0000     0.3232
    1.750     0.000   1.158244   0.043013   0.016713   0.059726   0.000000   0.000000  -0.752439   0.000000   0.000000   12.0000     0.3206
    2.000     0.000   1.179636   0.044624   0.016942   0.061566   0.000000   0.000000  -0.760564  -0.000000   0.000000   12.0000     0.3180
    2.250     0.000   1.200991   0.046261   0.017179   0.063441   0.000000   0.000000  -0.768668   0.000000   0.000000   12.0000     0.3155
    2.500     0.000   1.222307   0.047925   0.017126   0.065052   0.000000   0.000000  -0.776746   0.000000   0.000000   12.0000     0.3132
    2.750     0.000   1.243584   0.049616   0.017108   0.066723   0.000000   0.000000  -0.784801   0.000000   0.000000   12.0000     0.3109
    3.000     0.000   1.264821   0.051332   0.017109   0.068441   0.000000   0.000000  -0.792834   0.000000   0.000000   12.0000     0.3087
    3.250     0.000   1.286017   0.053074   0.017126   0.070201   0.000000   0.000000  -0.800843   0.000000   0.000000   12.0000     0.3066
    3.500     0.000   1.307172   0.054842   0.017162   0.072005   0.000000   0.000000  -0.808828   0.000000   0.000000   12.0000     0.3045
    3.750     0.000   1.328284   0.056635   0.017189   0.073825   0.000000   0.000000  -0.816788   0.000000   0.000000   12.0000     0.3025
    4.000     0.000   1.349354   0.058454   0.017239   0.075693   0.000000   0.000000  -0.824723   0.000000   0.000000   12.0000     0.3006
    4.250     0.000   1.370380   0.060297   0.017299   0.077596   0.000000   0.000000  -0.832633   0.000000   0.000000   12.0000     0.2987
    4.500     0.000   1.391361   0.062164   0.017352   0.079516   0.000000   0.000000  -0.840516   0.000000   0.000000   12.0000     0.2969
    4.750     0.000   1.412298   0.064056   0.017402   0.081458   0.000000   0.000000  -0.848371   0.000000   0.000000   12.0000     0.2952
    5.000     0.000   1.433188   0.065972   0.017461   0.083433   0.000000   0.000000  -0.856199   0.000000   0.000000   12.0000     0.2935
    5.250     0.000   1.454032   0.067912   0.017519   0.085430   0.000000   0.000000  -0.863999   0.000000   0.000000   12.0000     0.2919
    5.500     0.000   1.474828   0.069874   0.017584   0.087458   0.000000   0.000000  -0.871769   0.000000   0.000000   12.0000     0.2903
    5.750     0.000   1.495576   0.071860   0.017652   0.089513   0.000000   0.000000  -0.879511   0.000000   0.000000   12.0000     0.2888
    6.000     0.000   1.516276   0.073869   0.017726   0.091595   0.000000   0.000000  -0.887223   0.000000   0.000000   12.0000     0.2873
    6.250     0.000   1.536926   0.075900   0.017792   0.093692   0.000000   0.000000  -0.894903   0.000000   0.000000   12.0000     0.2858
    6.500     0.000   1.557526   0.077954   0.017847   0.095801   0.000000   0.000000  -0.902552   0.000000   0.000000   12.0000     0.2844
    6.750     0.000   1.578075   0.080029   0.017896   0.097926   0.000000   0.000000  -0.910169   0.000000   0.000000   12.0000     0.2831
    7.000     0.000   1.598572   0.082126   0.017925   0.100050   0.000000   0.000000  -0.917753   0.000000   0.000000   12.0000     0.2817
    7.250     0.000   1.619017   0.084244   0.017932   0.102176   0.000000   0.000000  -0.925303   0.000000   0.000000   12.0000     0.2805
    7.500     0.000   1.639409   0.086383   0.017981   0.104363   0.000000   0.000000  -0.932820   0.000000   0.000000   12.0000     0.2792
    7.750     0.000   1.659747   0.088542   0.018057   0.106599   0.000000   0.000000  -0.940304   0.000000   0.000000   12.0000     0.2780
    8.000     0.000   1.680031   0.090722   0.018151   0.108873   0.000000   0.000000  -0.947754   0.000000   0.000000   12.0000     0.2768
    8.250     0.000   1.700260   0.092922   0.018267   0.111188   0.000000   0.000000  -0.955171   0.000000   0.000000   12.0000     0.2757
    8.500     0.000   1.720434   0.095141   0.018390   0.113531   0.000000   0.000000  -0.962552  -0.000000   0.000000   12.0000     0.2745
    8.750     0.000   1.740551   0.097379   0.018517   0.115896   0.000000   0.000000  -0.969897  -0.000000   0.000000   12.0000     0.2734
    9.000     0.000   1.760611   0.099636   0.018652   0.118288   0.000000   0.000000  -0.977206  -0.000000   0.000000   12.0000     0.2724
    9.250     0.000   1.780613   0.101912   0.018789   0.120701   0.000000   0.000000  -0.984478  -0.000000   0.000000   12.0000     0.2714
    9.500     0.000   1.800557   0.104205   0.018933   0.123138   0.000000   0.000000  -0.991712  -0.000000   0.000000   12.0000     0.2703
    9.750     0.000   1.820442   0.106517   0.019088   0.125604   0.000000   0.000000  -0.998909  -0.000000   0.000000   12.0000     0.2694
   10.000     0.000   1.840268   0.108845   0.019246   0.128092   0.000000   0.000000  -1.006067  -0.000000   0.000000   12.0000     0.2684
   10.250     0.000   1.860034   0.111191   0.019403   0.130594   0.000000   0.000000  -1.013185  -0.000000   0.000000   12.0000     0.2675
   10.500     0.000   1.879738   0.113554   0.019559   0.133112   0.000000   0.000000  -1.020264  -0.000000   0.000000   12.0000     0.2666
   10.750     0.000   1.899381   0.115932   0.019714   0.135646   0.000000   0.000000  -1.027302  -0.000000   0.000000   12.0000     0.2657
   11.000     0.000   1.918963   0.118327   0.019879   0.138206   0.000000   0.000000  -1.034299  -0.000000   0.000000   12.0000     0.2648
   11.250     0.000   1.938481   0.120737   0.020057   0.140794   0.000000   0.000000  -1.041256  -0.000000   0.000000   12.0000     0.2640
   11.500     0.000   1.957936   0.123162   0.020230   0.143392   0.000000   0.000000  -1.048170  -0.000000   0.000000   12.0000     0.2631
   11.750     0.000   1.977328   0.125602   0.020404   0.146006   0.000000   0.000000  -1.055042  -0.000000   0.000000   12.0000     0.2623
   12.000     0.000   1.996655   0.128056   0.020582   0.148638   0.000000   0.000000  -1.061872  -0.000000   0.000000   12.0000     0.2616
   12.250     0.000   2.015917   0.130524   0.020769   0.151293   0.000000   0.000000  -1.068658  -0.000000   0.000000   12.0000     0.2608
   12.500     0.000   2.035113   0.133005   0.020980   0.153985   0.000000   0.000000  -1.075402  -0.000000   0.000000   12.0000     0.2600
   12.750     0.000   2.054244   0.135500   0.021183   0.156683   0.000000   0.000000  -1.082101  -0.000000   0.000000   12.0000     0.2593
   13.000     0.000   2.073307   0.138007   0.021381   0.159388   0.000000   0.000000  -1.088754  -0.000000   0.000000   12.0000     0.2586
   13.250     0.000   2.092303   0.140527   0.021585   0.162112   0.000000   0.000000  -1.095363  -0.000000   0.000000   12.0000     0.2579
   13.500     0.000   2.111232   0.143058   0.021828   0.164887   0.000000   0.000000  -1.101928  -0.000000   0.000000   12.0000     0.2572
   13.750     0.000   2.130092   0.145601   0.022073   0.167675   0.000000   0.000000  -1.108447  -0.000000   0.000000   12.0000     0.2565
   14.000     0.000   2.148883   0.148155   0.022305   0.170461   0.000000   0.000000  -1.114918  -0.000000   0.000000   12.0000     0.2559
   14.250     0.000   2.167604   0.150720   0.022545   0.173265   0.000000   0.000000  -1.121342  -0.000000   0.000000   12.0000     0.2553
   14.500     0.000   2.186256   0.153295   0.022869   0.176164   0.000000   0.000000  -1.127725  -0.000000   0.000000   12.0000     0.2546


