xflr5 v6.57

Plane name :        R23_MW01_216in_AR_15,02
Polar name :        T1-12.0 m/s-VLM2
Freestream speed :  12.000 m/s


   alpha      Beta       CL          CDi        CDv        CD         CY         Cl         Cm         Cn        Cni       QInf        XCP
    3.000     0.000   1.299750   0.036758   0.016549   0.053308   0.000000   0.000000  -0.791522  -0.000000   0.000000   12.0000     0.2249
    3.500     0.000   1.345397   0.039386   0.016814   0.056200   0.000000   0.000000  -0.808172  -0.000000   0.000000   12.0000     0.2217
    4.000     0.000   1.390889   0.042094   0.017113   0.059207   0.000000   0.000000  -0.824725  -0.000000   0.000000   12.0000     0.2188
    4.500     0.000   1.436221   0.044880   0.017419   0.062300   0.000000   0.000000  -0.841174  -0.000000   0.000000   12.0000     0.2160
    5.000     0.000   1.481387   0.047744   0.017728   0.065472   0.000000   0.000000  -0.857514  -0.000000   0.000000   12.0000     0.2134
    5.500     0.000   1.526382   0.050682   0.018094   0.068776   0.000000   0.000000  -0.873743  -0.000000   0.000000   12.0000     0.2109
    6.000     0.000   1.571200   0.053694   0.018465   0.072159   0.000000   0.000000  -0.889853  -0.000000   0.000000   12.0000     0.2086
    6.500     0.000   1.615835   0.056777   0.018835   0.075612   0.000000   0.000000  -0.905841  -0.000000   0.000000   12.0000     0.2065
    7.000     0.000   1.660283   0.059929   0.019244   0.079174   0.000000   0.000000  -0.921702  -0.000000   0.000000   12.0000     0.2044
    7.500     0.000   1.704538   0.063150   0.019653   0.082803   0.000000   0.000000  -0.937431  -0.000000   0.000000   12.0000     0.2025
    8.000     0.000   1.748595   0.066436   0.020039   0.086475   0.000000   0.000000  -0.953022  -0.000000   0.000000   12.0000     0.2007
    8.500     0.000   1.792449   0.069786   0.020474   0.090260   0.000000   0.000000  -0.968472  -0.000000   0.000000   12.0000     0.1990
    9.000     0.000   1.836094   0.073197   0.021026   0.094223   0.000000   0.000000  -0.983782  -0.000000   0.000000   12.0000     0.1974
    9.500     0.000   1.879526   0.076667   0.021647   0.098314   0.000000   0.000000  -0.998946  -0.000000   0.000000   12.0000     0.1958
   10.000     0.000   1.922740   0.080194   0.022321   0.102515   0.000000   0.000000  -1.013958  -0.000000   0.000000   12.0000     0.1943
   10.500     0.000   1.965730   0.083777   0.023055   0.106831   0.000000   0.000000  -1.028815  -0.000000   0.000000   12.0000     0.1929
   11.000     0.000   2.008491   0.087411   0.023816   0.111228   0.000000   0.000000  -1.043511  -0.000000   0.000000   12.0000     0.1916
   11.500     0.000   2.051020   0.091096   0.024671   0.115767   0.000000   0.000000  -1.058046  -0.000000   0.000000   12.0000     0.1903
   12.000     0.000   2.093311   0.094829   0.025583   0.120413   0.000000   0.000000  -1.072414  -0.000000   0.000000   12.0000     0.1891
   12.500     0.000   2.135360   0.098607   0.026567   0.125174   0.000000   0.000000  -1.086612  -0.000000   0.000000   12.0000     0.1880
   13.000     0.000   2.177162   0.102428   0.027753   0.130181   0.000000   0.000000  -1.100645  -0.000000   0.000000   12.0000     0.1869
   13.500     0.000   2.218713   0.106289   0.029154   0.135443   0.000000   0.000000  -1.114511  -0.000000   0.000000   12.0000     0.1858
   14.000     0.000   2.260008   0.110188   0.030999   0.141187   0.000000   0.000000  -1.128225  -0.000000   0.000000   12.0000     0.1848
   14.500     0.000   2.301043   0.114122   0.033184   0.147306   0.000000   0.000000  -1.141780  -0.000000   0.000000   12.0000     0.1838


