xflr5 v6.57

Plane name :        R23_LR315_168in_AR_9,34
Polar name :        R23_LR315_168in_AR_9,34_TX-12.0 m/s-VLM2
Freestream speed :  12.000 m/s


   alpha      Beta       CL          CDi        CDv        CD         CY         Cl         Cm         Cn        Cni       QInf        XCP
  -10.000     0.000   0.125534   0.000605   0.129469   0.130074   0.000000   0.000000  -0.351118   0.000000   0.000000   12.0000     1.3841
   -9.750     0.000   0.147445   0.000807   0.127484   0.128292   0.000000   0.000000  -0.359793   0.000000   0.000000   12.0000     1.2044
   -9.500     0.000   0.169357   0.001043   0.125609   0.126652   0.000000   0.000000  -0.368461   0.000000   0.000000   12.0000     1.0712
   -9.250     0.000   0.191269   0.001311   0.123438   0.124749   0.000000   0.000000  -0.377142   0.000000   0.000000   12.0000     0.9685
   -9.000     0.000   0.213180   0.001611   0.120623   0.122234   0.000000   0.000000  -0.385855   0.000000   0.000000   12.0000     0.8869
   -8.750     0.000   0.235090   0.001945   0.117418   0.119363   0.000000   0.000000  -0.394588   0.000000   0.000000   12.0000     0.8205
   -8.500     0.000   0.256997   0.002311   0.114156   0.116467   0.000000   0.000000  -0.403323   0.000000   0.000000   12.0000     0.7654
   -8.250     0.000   0.278900   0.002710   0.110070   0.112780   0.000000   0.000000  -0.412092   0.000000   0.000000   12.0000     0.7190
   -8.000     0.000   0.300800   0.003142   0.105653   0.108795   0.000000   0.000000  -0.420864   0.000000   0.000000   12.0000     0.6793
   -7.750     0.000   0.322694   0.003606   0.100497   0.104104   0.000000   0.000000  -0.429670   0.000000   0.000000   12.0000     0.6450
   -7.500     0.000   0.344582   0.004104   0.095534   0.099638   0.000000   0.000000  -0.438459   0.000000   0.000000   12.0000     0.6151
   -7.250     0.000   0.366464   0.004634   0.090296   0.094930   0.000000   0.000000  -0.447247   0.000000   0.000000   12.0000     0.5887
   -7.000     0.000   0.388337   0.005197   0.085624   0.090821   0.000000   0.000000  -0.455998   0.000000   0.000000   12.0000     0.5653
   -6.750     0.000   0.410203   0.005793   0.080285   0.086078   0.000000   0.000000  -0.464758   0.000000   0.000000   12.0000     0.5444
   -6.500     0.000   0.432059   0.006421   0.074584   0.081005   0.000000   0.000000  -0.473519   0.000000   0.000000   12.0000     0.5256
   -6.250     0.000   0.453905   0.007082   0.069714   0.076797   0.000000   0.000000  -0.482228   0.000000   0.000000   12.0000     0.5087
   -6.000     0.000   0.475740   0.007776   0.065341   0.073116   0.000000   0.000000  -0.490917   0.000000   0.000000   12.0000     0.4933
   -5.750     0.000   0.497563   0.008502   0.061843   0.070345   0.000000   0.000000  -0.499552   0.000000   0.000000   12.0000     0.4792
   -5.500     0.000   0.519373   0.009261   0.057505   0.066766   0.000000   0.000000  -0.508202   0.000000   0.000000   12.0000     0.4663
   -5.250     0.000   0.541170   0.010052   0.055086   0.065139   0.000000   0.000000  -0.516772   0.000000   0.000000   12.0000     0.4545
   -5.000     0.000   0.562953   0.010876   0.052895   0.063771   0.000000   0.000000  -0.525323   0.000000   0.000000   12.0000     0.4436
   -4.750     0.000   0.584720   0.011732   0.050162   0.061894   0.000000   0.000000  -0.533880   0.000000   0.000000   12.0000     0.4335
   -4.500     0.000   0.606471   0.012620   0.047512   0.060132   0.000000   0.000000  -0.542414   0.000000   0.000000   12.0000     0.4241
   -4.250     0.000   0.628205   0.013541   0.045261   0.058802   0.000000   0.000000  -0.550925   0.000000   0.000000   12.0000     0.4154
   -4.000     0.000   0.649922   0.014493   0.042865   0.057358   0.000000   0.000000  -0.559427   0.000000   0.000000   12.0000     0.4073
   -3.750     0.000   0.671620   0.015478   0.041366   0.056844   0.000000   0.000000  -0.567894   0.000000   0.000000   12.0000     0.3997
   -3.500     0.000   0.693298   0.016494   0.039130   0.055625   0.000000   0.000000  -0.576362   0.000000   0.000000   12.0000     0.3926
   -3.250     0.000   0.714957   0.017543   0.036817   0.054360   0.000000   0.000000  -0.584817   0.000000   0.000000   12.0000     0.3859
   -3.000     0.000   0.736594   0.018623   0.034427   0.053050   0.000000   0.000000  -0.593258   0.000000   0.000000   12.0000     0.3796
   -2.750     0.000   0.758209   0.019734   0.031913   0.051647   0.000000   0.000000  -0.601683   0.000000   0.000000   12.0000     0.3737
   -2.500     0.000   0.779802   0.020877   0.029462   0.050339   0.000000   0.000000  -0.610090   0.000000   0.000000   12.0000     0.3681
   -2.250     0.000   0.801371   0.022051   0.027998   0.050049   0.000000   0.000000  -0.618467   0.000000   0.000000   12.0000     0.3628
   -2.000     0.000   0.822916   0.023257   0.026512   0.049769   0.000000   0.000000  -0.626828   0.000000   0.000000   12.0000     0.3578
   -1.750     0.000   0.844435   0.024493   0.025132   0.049625   0.000000   0.000000  -0.635171   0.000000   0.000000   12.0000     0.3531
   -1.500     0.000   0.865929   0.025760   0.023297   0.049057   0.000000   0.000000  -0.643501   0.000000   0.000000   12.0000     0.3485
   -1.250     0.000   0.887395   0.027058   0.021670   0.048728   0.000000   0.000000  -0.651811   0.000000   0.000000   12.0000     0.3443
   -1.000     0.000   0.908834   0.028386   0.020735   0.049121   0.000000   0.000000  -0.660098   0.000000   0.000000   12.0000     0.3402
   -0.750     0.000   0.930245   0.029745   0.019940   0.049685   0.000000   0.000000  -0.668366   0.000000   0.000000   12.0000     0.3363
   -0.500     0.000   0.951626   0.031134   0.019244   0.050378   0.000000   0.000000  -0.676616   0.000000   0.000000   12.0000     0.3326
   -0.250     0.000   0.972977   0.032553   0.018953   0.051506   0.000000   0.000000  -0.684847   0.000000   0.000000   12.0000     0.3291
    0.000     0.000   0.994297   0.034002   0.018570   0.052571   0.000000   0.000000  -0.693061   0.000000   0.000000   12.0000     0.3257
    0.250     0.000   1.015586   0.035480   0.018265   0.053745   0.000000   0.000000  -0.701257  -0.000000   0.000000   12.0000     0.3224
    0.500     0.000   1.036842   0.036988   0.018103   0.055091   0.000000   0.000000  -0.709435   0.000000   0.000000   12.0000     0.3193
    0.750     0.000   1.058065   0.038525   0.017660   0.056185   0.000000   0.000000  -0.717593   0.000000   0.000000   12.0000     0.3164
    1.000     0.000   1.079253   0.040091   0.017539   0.057630   0.000000   0.000000  -0.725734   0.000000   0.000000   12.0000     0.3135
    1.250     0.000   1.100407   0.041686   0.017362   0.059048   0.000000   0.000000  -0.733854   0.000000   0.000000   12.0000     0.3108
    1.500     0.000   1.121525   0.043309   0.017199   0.060509   0.000000   0.000000  -0.741955  -0.000000   0.000000   12.0000     0.3081
    1.750     0.000   1.142607   0.044961   0.016971   0.061932   0.000000   0.000000  -0.750033   0.000000   0.000000   12.0000     0.3056
    2.000     0.000   1.163651   0.046641   0.017642   0.064283   0.000000   0.000000  -0.758102  -0.000000   0.000000   12.0000     0.3032
    2.250     0.000   1.184657   0.048349   0.017656   0.066006   0.000000   0.000000  -0.766142   0.000000   0.000000   12.0000     0.3008
    2.500     0.000   1.205625   0.050085   0.017564   0.067649   0.000000   0.000000  -0.774158   0.000000   0.000000   12.0000     0.2986
    2.750     0.000   1.226553   0.051847   0.017516   0.069363   0.000000   0.000000  -0.782152   0.000000   0.000000   12.0000     0.2964
    3.000     0.000   1.247440   0.053637   0.017501   0.071138   0.000000   0.000000  -0.790123   0.000000   0.000000   12.0000     0.2943
    3.250     0.000   1.268287   0.055454   0.017512   0.072966   0.000000   0.000000  -0.798071   0.000000   0.000000   12.0000     0.2923
    3.500     0.000   1.289091   0.057298   0.017544   0.074842   0.000000   0.000000  -0.805995   0.000000   0.000000   12.0000     0.2903
    3.750     0.000   1.309854   0.059168   0.017575   0.076743   0.000000   0.000000  -0.813894   0.000000   0.000000   12.0000     0.2884
    4.000     0.000   1.330572   0.061064   0.017614   0.078678   0.000000   0.000000  -0.821768   0.000000   0.000000   12.0000     0.2866
    4.250     0.000   1.351247   0.062985   0.017663   0.080648   0.000000   0.000000  -0.829616   0.000000   0.000000   12.0000     0.2848
    4.500     0.000   1.371876   0.064933   0.017719   0.082651   0.000000   0.000000  -0.837437   0.000000   0.000000   12.0000     0.2831
    4.750     0.000   1.392461   0.066905   0.017783   0.084688   0.000000   0.000000  -0.845232   0.000000   0.000000   12.0000     0.2815
    5.000     0.000   1.412998   0.068902   0.017848   0.086750   0.000000   0.000000  -0.852999   0.000000   0.000000   12.0000     0.2798
    5.250     0.000   1.433489   0.070924   0.017916   0.088841   0.000000   0.000000  -0.860737   0.000000   0.000000   12.0000     0.2783
    5.500     0.000   1.453932   0.072971   0.017985   0.090955   0.000000   0.000000  -0.868447   0.000000   0.000000   12.0000     0.2768
    5.750     0.000   1.474326   0.075041   0.018050   0.093091   0.000000   0.000000  -0.876128   0.000000   0.000000   12.0000     0.2753
    6.000     0.000   1.494671   0.077135   0.018116   0.095251   0.000000   0.000000  -0.883778   0.000000   0.000000   12.0000     0.2739
    6.250     0.000   1.514966   0.079253   0.018184   0.097436   0.000000   0.000000  -0.891397   0.000000   0.000000   12.0000     0.2725
    6.500     0.000   1.535211   0.081393   0.018244   0.099637   0.000000   0.000000  -0.898985   0.000000   0.000000   12.0000     0.2712
    6.750     0.000   1.555404   0.083556   0.018308   0.101864   0.000000   0.000000  -0.906542   0.000000   0.000000   12.0000     0.2699
    7.000     0.000   1.575545   0.085742   0.018369   0.104111   0.000000   0.000000  -0.914066   0.000000   0.000000   12.0000     0.2686
    7.250     0.000   1.595633   0.087949   0.018399   0.106348   0.000000   0.000000  -0.921556   0.000000   0.000000   12.0000     0.2674
    7.500     0.000   1.615668   0.090179   0.018404   0.108583   0.000000   0.000000  -0.929011   0.000000   0.000000   12.0000     0.2662
    7.750     0.000   1.635649   0.092430   0.018437   0.110867   0.000000   0.000000  -0.936432   0.000000   0.000000   12.0000     0.2651
    8.000     0.000   1.655574   0.094701   0.018521   0.113222   0.000000   0.000000  -0.943821   0.000000   0.000000   12.0000     0.2639
    8.250     0.000   1.675445   0.096994   0.018617   0.115611   0.000000   0.000000  -0.951175   0.000000   0.000000   12.0000     0.2629
    8.500     0.000   1.695259   0.099306   0.018734   0.118040   0.000000   0.000000  -0.958495  -0.000000   0.000000   12.0000     0.2618
    8.750     0.000   1.715016   0.101639   0.018864   0.120503   0.000000   0.000000  -0.965780  -0.000000   0.000000   12.0000     0.2607
    9.000     0.000   1.734716   0.103991   0.019007   0.122998   0.000000   0.000000  -0.973029  -0.000000   0.000000   12.0000     0.2597
    9.250     0.000   1.754358   0.106363   0.019153   0.125515   0.000000   0.000000  -0.980241  -0.000000   0.000000   12.0000     0.2588
    9.500     0.000   1.773940   0.108753   0.019295   0.128048   0.000000   0.000000  -0.987415  -0.000000   0.000000   12.0000     0.2578
    9.750     0.000   1.793464   0.111162   0.019436   0.130597   0.000000   0.000000  -0.994551  -0.000000   0.000000   12.0000     0.2569
   10.000     0.000   1.812927   0.113588   0.019579   0.133168   0.000000   0.000000  -1.001647  -0.000000   0.000000   12.0000     0.2560
   10.250     0.000   1.832330   0.116033   0.019723   0.135756   0.000000   0.000000  -1.008705  -0.000000   0.000000   12.0000     0.2551
   10.500     0.000   1.851671   0.118494   0.019882   0.138376   0.000000   0.000000  -1.015723  -0.000000   0.000000   12.0000     0.2542
   10.750     0.000   1.870950   0.120973   0.020044   0.141016   0.000000   0.000000  -1.022701  -0.000000   0.000000   12.0000     0.2534
   11.000     0.000   1.890167   0.123468   0.020205   0.143673   0.000000   0.000000  -1.029639  -0.000000   0.000000   12.0000     0.2525
   11.250     0.000   1.909321   0.125979   0.020364   0.146343   0.000000   0.000000  -1.036535  -0.000000   0.000000   12.0000     0.2517
   11.500     0.000   1.928410   0.128506   0.020524   0.149030   0.000000   0.000000  -1.043389  -0.000000   0.000000   12.0000     0.2510
   11.750     0.000   1.947436   0.131048   0.020694   0.151742   0.000000   0.000000  -1.050202  -0.000000   0.000000   12.0000     0.2502
   12.000     0.000   1.966396   0.133605   0.020880   0.154485   0.000000   0.000000  -1.056972  -0.000000   0.000000   12.0000     0.2494
   12.250     0.000   1.985291   0.136176   0.021065   0.157241   0.000000   0.000000  -1.063699  -0.000000   0.000000   12.0000     0.2487
   12.500     0.000   2.004120   0.138762   0.021244   0.160005   0.000000   0.000000  -1.070382  -0.000000   0.000000   12.0000     0.2480
   12.750     0.000   2.022882   0.141361   0.021425   0.162786   0.000000   0.000000  -1.077020  -0.000000   0.000000   12.0000     0.2473
   13.000     0.000   2.041576   0.143973   0.021613   0.165586   0.000000   0.000000  -1.083614  -0.000000   0.000000   12.0000     0.2466
   13.250     0.000   2.060203   0.146598   0.021831   0.168428   0.000000   0.000000  -1.090165  -0.000000   0.000000   12.0000     0.2460
   13.500     0.000   2.078762   0.149235   0.022042   0.171277   0.000000   0.000000  -1.096669  -0.000000   0.000000   12.0000     0.2453
   13.750     0.000   2.097251   0.151884   0.022248   0.174132   0.000000   0.000000  -1.103127  -0.000000   0.000000   12.0000     0.2447
   14.000     0.000   2.115671   0.154545   0.022461   0.177006   0.000000   0.000000  -1.109539  -0.000000   0.000000   12.0000     0.2441
   14.250     0.000   2.134021   0.157216   0.022719   0.179936   0.000000   0.000000  -1.115907  -0.000000   0.000000   12.0000     0.2435
   14.500     0.000   2.152300   0.159898   0.022983   0.182881   0.000000   0.000000  -1.122228  -0.000000   0.000000   12.0000     0.2429


