xflr5 v6.57

Plane name :        R23_LR315_216in_AR_13,03
Polar name :        R23_LR315_216in_AR_13,03_TX-12.0 m/s-VLM2
Freestream speed :  12.000 m/s


   alpha      Beta       CL          CDi        CDv        CD         CY         Cl         Cm         Cn        Cni       QInf        XCP
  -10.000     0.000   0.124420   0.000457   0.131752   0.132209   0.000000   0.000000  -0.357606   0.000000   0.000000   12.0000     1.3026
   -9.750     0.000   0.147730   0.000613   0.129003   0.129616   0.000000   0.000000  -0.366547   0.000000   0.000000   12.0000     1.1216
   -9.500     0.000   0.171040   0.000795   0.126260   0.127055   0.000000   0.000000  -0.375487   0.000000   0.000000   12.0000     0.9899
   -9.250     0.000   0.194350   0.001005   0.123522   0.124526   0.000000   0.000000  -0.384426   0.000000   0.000000   12.0000     0.8898
   -9.000     0.000   0.217658   0.001241   0.120449   0.121690   0.000000   0.000000  -0.393379   0.000000  -0.000000   12.0000     0.8111
   -8.750     0.000   0.240965   0.001504   0.116198   0.117702   0.000000   0.000000  -0.402386   0.000000   0.000000   12.0000     0.7476
   -8.500     0.000   0.264268   0.001794   0.111675   0.113469   0.000000   0.000000  -0.411409   0.000000   0.000000   12.0000     0.6953
   -8.250     0.000   0.287568   0.002111   0.107534   0.109645   0.000000   0.000000  -0.420405   0.000000   0.000000   12.0000     0.6515
   -8.000     0.000   0.310863   0.002455   0.103776   0.106230   0.000000   0.000000  -0.429382   0.000000   0.000000   12.0000     0.6143
   -7.750     0.000   0.334153   0.002826   0.098567   0.101393   0.000000   0.000000  -0.438414   0.000000   0.000000   12.0000     0.5822
   -7.500     0.000   0.357437   0.003223   0.093080   0.096304   0.000000   0.000000  -0.447453   0.000000   0.000000   12.0000     0.5543
   -7.250     0.000   0.380714   0.003648   0.088670   0.092318   0.000000   0.000000  -0.456428   0.000000   0.000000   12.0000     0.5299
   -7.000     0.000   0.403984   0.004100   0.082687   0.086787   0.000000   0.000000  -0.465467   0.000000   0.000000   12.0000     0.5082
   -6.750     0.000   0.427245   0.004578   0.077593   0.082171   0.000000   0.000000  -0.474446   0.000000   0.000000   12.0000     0.4889
   -6.500     0.000   0.450496   0.005083   0.072349   0.077432   0.000000   0.000000  -0.483417   0.000000   0.000000   12.0000     0.4716
   -6.250     0.000   0.473738   0.005616   0.067050   0.072665   0.000000   0.000000  -0.492380   0.000000   0.000000   12.0000     0.4560
   -6.000     0.000   0.496968   0.006175   0.062953   0.069127   0.000000   0.000000  -0.501283   0.000000   0.000000   12.0000     0.4419
   -5.750     0.000   0.520187   0.006761   0.059878   0.066639   0.000000   0.000000  -0.510141   0.000000   0.000000   12.0000     0.4290
   -5.500     0.000   0.543394   0.007373   0.056743   0.064116   0.000000   0.000000  -0.518984   0.000000   0.000000   12.0000     0.4173
   -5.250     0.000   0.566587   0.008012   0.052991   0.061004   0.000000   0.000000  -0.527836   0.000000   0.000000   12.0000     0.4065
   -5.000     0.000   0.589766   0.008678   0.050860   0.059538   0.000000   0.000000  -0.536622   0.000000   0.000000   12.0000     0.3965
   -4.750     0.000   0.612931   0.009371   0.048588   0.057959   0.000000   0.000000  -0.545400   0.000000   0.000000   12.0000     0.3873
   -4.500     0.000   0.636080   0.010090   0.045816   0.055905   0.000000   0.000000  -0.554181   0.000000   0.000000   12.0000     0.3788
   -4.250     0.000   0.659212   0.010835   0.043698   0.054533   0.000000   0.000000  -0.562928   0.000000   0.000000   12.0000     0.3708
   -4.000     0.000   0.682327   0.011607   0.041655   0.053263   0.000000   0.000000  -0.571661   0.000000   0.000000   12.0000     0.3635
   -3.750     0.000   0.705425   0.012405   0.039082   0.051488   0.000000   0.000000  -0.580394   0.000000   0.000000   12.0000     0.3566
   -3.500     0.000   0.728503   0.013230   0.036795   0.050024   0.000000   0.000000  -0.589104   0.000000   0.000000   12.0000     0.3501
   -3.250     0.000   0.751562   0.014080   0.034496   0.048576   0.000000   0.000000  -0.597800   0.000000   0.000000   12.0000     0.3440
   -3.000     0.000   0.774600   0.014957   0.032093   0.047050   0.000000   0.000000  -0.606483   0.000000   0.000000   12.0000     0.3383
   -2.750     0.000   0.797618   0.015859   0.029789   0.045648   0.000000   0.000000  -0.615148   0.000000   0.000000   12.0000     0.3330
   -2.500     0.000   0.820613   0.016788   0.027983   0.044770   0.000000   0.000000  -0.623791   0.000000   0.000000   12.0000     0.3279
   -2.250     0.000   0.843586   0.017742   0.025973   0.043715   0.000000   0.000000  -0.632421   0.000000   0.000000   12.0000     0.3231
   -2.000     0.000   0.866535   0.018722   0.023670   0.042392   0.000000   0.000000  -0.641038   0.000000   0.000000   12.0000     0.3186
   -1.750     0.000   0.889461   0.019727   0.022184   0.041911   0.000000   0.000000  -0.649627   0.000000   0.000000   12.0000     0.3143
   -1.500     0.000   0.912361   0.020758   0.021002   0.041760   0.000000   0.000000  -0.658196   0.000000   0.000000   12.0000     0.3102
   -1.250     0.000   0.935235   0.021813   0.020530   0.042343   0.000000   0.000000  -0.666742   0.000000   0.000000   12.0000     0.3064
   -1.000     0.000   0.958083   0.022894   0.020024   0.042919   0.000000   0.000000  -0.675273   0.000000   0.000000   12.0000     0.3027
   -0.750     0.000   0.980903   0.024000   0.019446   0.043446   0.000000   0.000000  -0.683789   0.000000   0.000000   12.0000     0.2992
   -0.500     0.000   1.003695   0.025131   0.019207   0.044339   0.000000   0.000000  -0.692287   0.000000   0.000000   12.0000     0.2958
   -0.250     0.000   1.026459   0.026287   0.018996   0.045283   0.000000   0.000000  -0.700769  -0.000000   0.000000   12.0000     0.2926
    0.000     0.000   1.049193   0.027467   0.018607   0.046073   0.000000   0.000000  -0.709234  -0.000000   0.000000   12.0000     0.2896
    0.250     0.000   1.071896   0.028671   0.018296   0.046967   0.000000   0.000000  -0.717681   0.000000   0.000000   12.0000     0.2867
    0.500     0.000   1.094568   0.029900   0.017959   0.047859   0.000000   0.000000  -0.726110   0.000000   0.000000   12.0000     0.2839
    0.750     0.000   1.117209   0.031153   0.018330   0.049482   0.000000   0.000000  -0.734523  -0.000000   0.000000   12.0000     0.2812
    1.000     0.000   1.139817   0.032429   0.018574   0.051003   0.000000   0.000000  -0.742917   0.000000   0.000000   12.0000     0.2786
    1.250     0.000   1.162391   0.033729   0.018420   0.052149   0.000000   0.000000  -0.751291   0.000000   0.000000   12.0000     0.2761
    1.500     0.000   1.184931   0.035053   0.018268   0.053321   0.000000   0.000000  -0.759644   0.000000   0.000000   12.0000     0.2738
    1.750     0.000   1.207437   0.036401   0.018175   0.054575   0.000000   0.000000  -0.767978   0.000000   0.000000   12.0000     0.2715
    2.000     0.000   1.229906   0.037771   0.018136   0.055907   0.000000   0.000000  -0.776290   0.000000   0.000000   12.0000     0.2693
    2.250     0.000   1.252340   0.039164   0.018130   0.057294   0.000000   0.000000  -0.784582   0.000000   0.000000   12.0000     0.2672
    2.500     0.000   1.274736   0.040580   0.018151   0.058732   0.000000   0.000000  -0.792851   0.000000   0.000000   12.0000     0.2652
    2.750     0.000   1.297095   0.042019   0.018190   0.060209   0.000000   0.000000  -0.801099   0.000000   0.000000   12.0000     0.2632
    3.000     0.000   1.319414   0.043480   0.018242   0.061722   0.000000   0.000000  -0.809323   0.000000   0.000000   12.0000     0.2613
    3.250     0.000   1.341695   0.044963   0.018294   0.063258   0.000000   0.000000  -0.817523   0.000000   0.000000   12.0000     0.2595
    3.500     0.000   1.363936   0.046468   0.018363   0.064831   0.000000   0.000000  -0.825700   0.000000   0.000000   12.0000     0.2577
    3.750     0.000   1.386135   0.047995   0.018434   0.066429   0.000000   0.000000  -0.833851   0.000000   0.000000   12.0000     0.2560
    4.000     0.000   1.408294   0.049543   0.018511   0.068054   0.000000   0.000000  -0.841978   0.000000   0.000000   12.0000     0.2543
    4.250     0.000   1.430410   0.051113   0.018581   0.069694   0.000000   0.000000  -0.850077   0.000000   0.000000   12.0000     0.2527
    4.500     0.000   1.452483   0.052703   0.018648   0.071351   0.000000   0.000000  -0.858150   0.000000   0.000000   12.0000     0.2512
    4.750     0.000   1.474513   0.054315   0.018730   0.073045   0.000000   0.000000  -0.866196   0.000000   0.000000   12.0000     0.2497
    5.000     0.000   1.496498   0.055947   0.018814   0.074761   0.000000   0.000000  -0.874214  -0.000000   0.000000   12.0000     0.2483
    5.250     0.000   1.518439   0.057599   0.018894   0.076493   0.000000   0.000000  -0.882203  -0.000000   0.000000   12.0000     0.2469
    5.500     0.000   1.540334   0.059271   0.018965   0.078236   0.000000   0.000000  -0.890162  -0.000000   0.000000   12.0000     0.2455
    5.750     0.000   1.562182   0.060963   0.019025   0.079988   0.000000   0.000000  -0.898092  -0.000000   0.000000   12.0000     0.2442
    6.000     0.000   1.583983   0.062675   0.019039   0.081714   0.000000   0.000000  -0.905989   0.000000   0.000000   12.0000     0.2429
    6.250     0.000   1.605737   0.064406   0.019048   0.083454   0.000000   0.000000  -0.913855   0.000000   0.000000   12.0000     0.2416
    6.500     0.000   1.627442   0.066156   0.019117   0.085272   0.000000   0.000000  -0.921691   0.000000   0.000000   12.0000     0.2404
    6.750     0.000   1.649098   0.067924   0.019227   0.087151   0.000000   0.000000  -0.929496  -0.000000   0.000000   12.0000     0.2393
    7.000     0.000   1.670705   0.069711   0.019355   0.089066   0.000000   0.000000  -0.937269  -0.000000   0.000000   12.0000     0.2381
    7.250     0.000   1.692260   0.071517   0.019503   0.091020   0.000000   0.000000  -0.945011  -0.000000   0.000000   12.0000     0.2370
    7.500     0.000   1.713765   0.073340   0.019654   0.092994   0.000000   0.000000  -0.952718  -0.000000   0.000000   12.0000     0.2359
    7.750     0.000   1.735218   0.075181   0.019805   0.094986   0.000000   0.000000  -0.960391  -0.000000   0.000000   12.0000     0.2349
    8.000     0.000   1.756619   0.077039   0.019959   0.096998   0.000000   0.000000  -0.968030  -0.000000   0.000000   12.0000     0.2339
    8.250     0.000   1.777966   0.078914   0.020128   0.099042   0.000000   0.000000  -0.975633  -0.000000   0.000000   12.0000     0.2329
    8.500     0.000   1.799260   0.080806   0.020300   0.101106   0.000000   0.000000  -0.983201  -0.000000   0.000000   12.0000     0.2319
    8.750     0.000   1.820499   0.082715   0.020470   0.103185   0.000000   0.000000  -0.990731  -0.000000   0.000000   12.0000     0.2310
    9.000     0.000   1.841683   0.084640   0.020637   0.105276   0.000000   0.000000  -0.998225  -0.000000   0.000000   12.0000     0.2300
    9.250     0.000   1.862812   0.086580   0.020812   0.107392   0.000000   0.000000  -1.005681  -0.000000   0.000000   12.0000     0.2291
    9.500     0.000   1.883885   0.088536   0.020999   0.109535   0.000000   0.000000  -1.013100  -0.000000   0.000000   12.0000     0.2283
    9.750     0.000   1.904900   0.090507   0.021198   0.111705   0.000000   0.000000  -1.020480  -0.000000   0.000000   12.0000     0.2274
   10.000     0.000   1.925858   0.092494   0.021390   0.113884   0.000000   0.000000  -1.027821  -0.000000   0.000000   12.0000     0.2266
   10.250     0.000   1.946758   0.094495   0.021574   0.116068   0.000000   0.000000  -1.035122  -0.000000   0.000000   12.0000     0.2258
   10.500     0.000   1.967599   0.096510   0.021762   0.118272   0.000000   0.000000  -1.042382  -0.000000   0.000000   12.0000     0.2250
   10.750     0.000   1.988381   0.098539   0.021979   0.120517   0.000000   0.000000  -1.049603  -0.000000   0.000000   12.0000     0.2242
   11.000     0.000   2.009103   0.100582   0.022204   0.122786   0.000000   0.000000  -1.056782  -0.000000   0.000000   12.0000     0.2235
   11.250     0.000   2.029764   0.102638   0.022425   0.125063   0.000000   0.000000  -1.063920  -0.000000   0.000000   12.0000     0.2227
   11.500     0.000   2.050364   0.104707   0.022636   0.127343   0.000000   0.000000  -1.071015  -0.000000   0.000000   12.0000     0.2220
   11.750     0.000   2.070903   0.106788   0.022891   0.129679   0.000000   0.000000  -1.078070  -0.000000   0.000000   12.0000     0.2213
   12.000     0.000   2.091379   0.108882   0.023161   0.132043   0.000000   0.000000  -1.085082  -0.000000   0.000000   12.0000     0.2206
   12.250     0.000   2.111792   0.110988   0.023415   0.134403   0.000000   0.000000  -1.092048  -0.000000   0.000000   12.0000     0.2200
   12.500     0.000   2.132142   0.113106   0.023661   0.136767   0.000000   0.000000  -1.098970  -0.000000   0.000000   12.0000     0.2193
   12.750     0.000   2.152428   0.115235   0.023963   0.139198   0.000000   0.000000  -1.105851  -0.000000   0.000000   12.0000     0.2187
   13.000     0.000   2.172649   0.117374   0.024276   0.141650   0.000000   0.000000  -1.112686  -0.000000   0.000000   12.0000     0.2180
   13.250     0.000   2.192805   0.119525   0.024550   0.144074   0.000000   0.000000  -1.119473  -0.000000   0.000000   12.0000     0.2174
   13.500     0.000   2.212896   0.121685   0.024898   0.146583   0.000000   0.000000  -1.126218  -0.000000   0.000000   12.0000     0.2168
   13.750     0.000   2.232920   0.123856   0.025286   0.149141   0.000000   0.000000  -1.132919  -0.000000   0.000000   12.0000     0.2162
   14.000     0.000   2.252877   0.126036   0.025639   0.151675   0.000000   0.000000  -1.139570  -0.000000   0.000000   12.0000     0.2157
   14.250     0.000   2.272767   0.128225   0.026125   0.154350   0.000000   0.000000  -1.146183  -0.000000   0.000000   12.0000     0.2151
   14.500     0.000   2.292590   0.130423   0.026836   0.157259   0.000000   0.000000  -1.152766  -0.000000   0.000000   12.0000     0.2146


