xflr5 v6.57

Plane name :        R23_LR315_216in_AR_12,01_HS_0,75
Polar name :        T1-12.0 m/s-VLM2
Freestream speed :  12.000 m/s


   alpha      Beta       CL          CDi        CDv        CD         CY         Cl         Cm         Cn        Cni       QInf        XCP
   -9.000     0.000   0.221076   0.013441   0.089428   0.102869  -0.000000  -0.000000   0.326220  -0.000000   0.000000   12.0000    -0.7040
   -8.750     0.000   0.245990   0.013535   0.083906   0.097441   0.000000  -0.000000   0.308762  -0.000000  -0.000000   12.0000    -0.5990
   -8.500     0.000   0.270904   0.013662   0.077823   0.091486   0.000000  -0.000000   0.291298  -0.000000   0.000000   12.0000    -0.5132
   -8.250     0.000   0.295817   0.013825   0.072227   0.086051   0.000000  -0.000000   0.273827   0.000000   0.000000   12.0000    -0.4419
   -8.000     0.000   0.320727   0.014021   0.067472   0.081493   0.000000  -0.000000   0.256450  -0.000000   0.000000   12.0000    -0.3817
   -7.750     0.000   0.345635   0.014252   0.063687   0.077939   0.000000  -0.000000   0.239030  -0.000000  -0.000000   12.0000    -0.3302
   -7.500     0.000   0.370539   0.014517   0.058961   0.073477   0.000000  -0.000000   0.221545  -0.000000  -0.000000   12.0000    -0.2856
   -7.250     0.000   0.395437   0.014816   0.056481   0.071298   0.000000  -0.000000   0.204121  -0.000000   0.000000   12.0000    -0.2466
   -7.000     0.000   0.420330   0.015150   0.053617   0.068768   0.000000   0.000000   0.186693  -0.000000   0.000000   12.0000    -0.2122
   -6.750     0.000   0.445216   0.015519   0.050583   0.066102   0.000000   0.000000   0.169283   0.000000  -0.000000   12.0000    -0.1816
   -6.500     0.000   0.470095   0.015922   0.048005   0.063927   0.000000   0.000000   0.151860  -0.000000   0.000000   12.0000    -0.1543
   -6.250     0.000   0.494964   0.016359   0.045450   0.061810   0.000000   0.000000   0.134427   0.000000   0.000000   12.0000    -0.1298
   -6.000     0.000   0.519825   0.016831   0.043165   0.059996   0.000000   0.000000   0.116977   0.000000  -0.000000   12.0000    -0.1076
   -5.750     0.000   0.544674   0.017337   0.041339   0.058677   0.000000   0.000000   0.099513   0.000000   0.000000   12.0000    -0.0874
   -5.500     0.000   0.569512   0.017878   0.038758   0.056636   0.000000   0.000000   0.082055   0.000000   0.000000   12.0000    -0.0690
   -5.250     0.000   0.594338   0.018453   0.036191   0.054644   0.000000   0.000000   0.064541   0.000000   0.000000   12.0000    -0.0521
   -5.000     0.000   0.619151   0.019062   0.033615   0.052677   0.000000   0.000000   0.047051   0.000000   0.000000   12.0000    -0.0365
   -4.750     0.000   0.643949   0.019706   0.030982   0.050688   0.000000   0.000000   0.029513   0.000000   0.000000   12.0000    -0.0222
   -4.500     0.000   0.668733   0.020384   0.029276   0.049660   0.000000   0.000000   0.011985   0.000000   0.000000   12.0000    -0.0089
   -4.250     0.000   0.693500   0.021096   0.027788   0.048884   0.000000   0.000000  -0.005549   0.000000   0.000000   12.0000     0.0034
   -4.000     0.000   0.718250   0.021842   0.026238   0.048080   0.000000   0.000000  -0.023106   0.000000   0.000000   12.0000     0.0148
   -3.750     0.000   0.742983   0.022623   0.024338   0.046961   0.000000   0.000000  -0.040675   0.000000  -0.000000   12.0000     0.0256
   -3.500     0.000   0.767696   0.023437   0.022663   0.046100   0.000000   0.000000  -0.058232   0.000000   0.000000   12.0000     0.0356
   -3.250     0.000   0.792390   0.024286   0.021813   0.046098   0.000000   0.000000  -0.075750  -0.000000   0.000000   12.0000     0.0450
   -3.000     0.000   0.817063   0.025168   0.021224   0.046392   0.000000   0.000000  -0.093432  -0.000000   0.000000   12.0000     0.0538
   -2.750     0.000   0.841715   0.026084   0.020512   0.046595   0.000000   0.000000  -0.111135  -0.000000   0.000000   12.0000     0.0621
   -2.500     0.000   0.866344   0.027033   0.020089   0.047122   0.000000   0.000000  -0.128854  -0.000000   0.000000   12.0000     0.0699
   -2.250     0.000   0.890950   0.028016   0.019798   0.047815   0.000000   0.000000  -0.146591  -0.000000   0.000000   12.0000     0.0774
   -2.000     0.000   0.915531   0.029033   0.019455   0.048488   0.000000   0.000000  -0.164344  -0.000000   0.000000   12.0000     0.0844
   -1.750     0.000   0.940087   0.030083   0.019361   0.049444   0.000000   0.000000  -0.182113  -0.000000   0.000000   12.0000     0.0910
   -1.500     0.000   0.964617   0.031166   0.019128   0.050294   0.000000   0.000000  -0.199897  -0.000000   0.000000   12.0000     0.0973
   -1.250     0.000   0.989120   0.032282   0.018816   0.051098   0.000000   0.000000  -0.217693  -0.000000   0.000000   12.0000     0.1033
   -1.000     0.000   1.013595   0.033431   0.018549   0.051981   0.000000   0.000000  -0.235501  -0.000000   0.000000   12.0000     0.1090
   -0.750     0.000   1.038041   0.034613   0.018272   0.052885   0.000000   0.000000  -0.253320  -0.000000   0.000000   12.0000     0.1144
   -0.500     0.000   1.062457   0.035827   0.018696   0.054524   0.000000   0.000000  -0.271154  -0.000000   0.000000   12.0000     0.1196
   -0.250     0.000   1.086843   0.037074   0.018799   0.055874   0.000000   0.000000  -0.288995   0.000000   0.000000   12.0000     0.1246
    0.000     0.000   1.111197   0.038354   0.018693   0.057046   0.000000   0.000000  -0.306841   0.000000   0.000000   12.0000     0.1293
    0.250     0.000   1.135519   0.039665   0.018633   0.058298   0.000000   0.000000  -0.324694   0.000000   0.000000   12.0000     0.1339
    0.500     0.000   1.159807   0.041008   0.018613   0.059621   0.000000   0.000000  -0.342553   0.000000   0.000000   12.0000     0.1382
    0.750     0.000   1.184061   0.042383   0.018612   0.060995   0.000000   0.000000  -0.360415   0.000000   0.000000   12.0000     0.1424
    1.000     0.000   1.208280   0.043790   0.018622   0.062412   0.000000   0.000000  -0.378279   0.000000   0.000000   12.0000     0.1464
    1.250     0.000   1.232463   0.045228   0.018660   0.063889   0.000000   0.000000  -0.396146   0.000000   0.000000   12.0000     0.1502
    1.500     0.000   1.256609   0.046697   0.018713   0.065410   0.000000   0.000000  -0.414013   0.000000   0.000000   12.0000     0.1539
    1.750     0.000   1.280717   0.048198   0.018768   0.066966   0.000000   0.000000  -0.431878   0.000000   0.000000   12.0000     0.1575
    2.000     0.000   1.304787   0.049729   0.018832   0.068561   0.000000   0.000000  -0.449741  -0.000000   0.000000   12.0000     0.1610
    2.250     0.000   1.328817   0.051290   0.018902   0.070192   0.000000   0.000000  -0.467600   0.000000   0.000000   12.0000     0.1643
    2.500     0.000   1.352806   0.052882   0.018959   0.071842   0.000000   0.000000  -0.485454   0.000000   0.000000   12.0000     0.1675
    2.750     0.000   1.376755   0.054505   0.019021   0.073526   0.000000   0.000000  -0.503301   0.000000   0.000000   12.0000     0.1706
    3.000     0.000   1.400661   0.056156   0.019082   0.075238   0.000000   0.000000  -0.521140   0.000000   0.000000   12.0000     0.1735
    3.250     0.000   1.424524   0.057838   0.019147   0.076985   0.000000   0.000000  -0.538970   0.000000   0.000000   12.0000     0.1764
    3.500     0.000   1.448344   0.059549   0.019213   0.078761   0.000000   0.000000  -0.556789   0.000000   0.000000   12.0000     0.1792
    3.750     0.000   1.472119   0.061289   0.019277   0.080566   0.000000   0.000000  -0.574597   0.000000   0.000000   12.0000     0.1819
    4.000     0.000   1.495848   0.063058   0.019349   0.082407   0.000000   0.000000  -0.592392   0.000000   0.000000   12.0000     0.1845
    4.250     0.000   1.519531   0.064855   0.019422   0.084277   0.000000   0.000000  -0.610172   0.000000   0.000000   12.0000     0.1871
    4.500     0.000   1.543167   0.066681   0.019457   0.086139   0.000000   0.000000  -0.627936   0.000000   0.000000   12.0000     0.1896
    4.750     0.000   1.566754   0.068535   0.019470   0.088005   0.000000   0.000000  -0.645682   0.000000   0.000000   12.0000     0.1919
    5.000     0.000   1.590293   0.070417   0.019537   0.089954   0.000000   0.000000  -0.663411   0.000000   0.000000   12.0000     0.1943
    5.250     0.000   1.613782   0.072326   0.019640   0.091966   0.000000   0.000000  -0.681121  -0.000000   0.000000   12.0000     0.1965
    5.500     0.000   1.637221   0.074262   0.019750   0.094012   0.000000   0.000000  -0.698811   0.000000   0.000000   12.0000     0.1987
    5.750     0.000   1.660608   0.076226   0.019879   0.096104   0.000000   0.000000  -0.716480   0.000000   0.000000   12.0000     0.2009
    6.000     0.000   1.683943   0.078215   0.020024   0.098239   0.000000   0.000000  -0.734126  -0.000000   0.000000   12.0000     0.2030
    6.250     0.000   1.707225   0.080231   0.020178   0.100409   0.000000   0.000000  -0.751748  -0.000000   0.000000   12.0000     0.2050
    6.500     0.000   1.730454   0.082273   0.020335   0.102608   0.000000   0.000000  -0.769344  -0.000000   0.000000   12.0000     0.2070
    6.750     0.000   1.753627   0.084341   0.020497   0.104838   0.000000   0.000000  -0.786914  -0.000000   0.000000   12.0000     0.2089
    7.000     0.000   1.776746   0.086434   0.020663   0.107097   0.000000   0.000000  -0.804455  -0.000000   0.000000   12.0000     0.2108
    7.250     0.000   1.799808   0.088552   0.020833   0.109385   0.000000   0.000000  -0.821967  -0.000000  -0.000000   12.0000     0.2126
    7.500     0.000   1.822813   0.090695   0.021014   0.111709   0.000000   0.000000  -0.839449  -0.000000   0.000000   12.0000     0.2144
    7.750     0.000   1.845761   0.092862   0.021211   0.114073   0.000000   0.000000  -0.856899  -0.000000   0.000000   12.0000     0.2161
    8.000     0.000   1.868650   0.095053   0.021399   0.116451   0.000000   0.000000  -0.874315  -0.000000   0.000000   12.0000     0.2178
    8.250     0.000   1.891480   0.097267   0.021588   0.118855   0.000000   0.000000  -0.891697  -0.000000   0.000000   12.0000     0.2195
    8.500     0.000   1.914250   0.099505   0.021780   0.121285   0.000000   0.000000  -0.909043  -0.000000   0.000000   12.0000     0.2211
    8.750     0.000   1.936958   0.101766   0.021994   0.123760   0.000000   0.000000  -0.926353  -0.000000   0.000000   12.0000     0.2227
    9.000     0.000   1.959606   0.104049   0.022219   0.126268   0.000000   0.000000  -0.943626  -0.000000   0.000000   12.0000     0.2243
    9.250     0.000   1.982191   0.106354   0.022441   0.128796   0.000000   0.000000  -0.960859  -0.000000   0.000000   12.0000     0.2258
    9.500     0.000   2.004713   0.108682   0.022659   0.131341   0.000000   0.000000  -0.978050  -0.000000   0.000000   12.0000     0.2273
    9.750     0.000   2.027171   0.111030   0.022877   0.133908   0.000000   0.000000  -0.995200  -0.000000  -0.000000   12.0000     0.2288
   10.000     0.000   2.049565   0.113400   0.023131   0.136531   0.000000   0.000000  -1.012309  -0.000000   0.000000   12.0000     0.2302
   10.250     0.000   2.071894   0.115790   0.023382   0.139172   0.000000   0.000000  -1.029372  -0.000000   0.000000   12.0000     0.2316
   10.500     0.000   2.094156   0.118201   0.023622   0.141823   0.000000   0.000000  -1.046390  -0.000000   0.000000   12.0000     0.2330
   10.750     0.000   2.116352   0.120631   0.023871   0.144503   0.000000   0.000000  -1.063360  -0.000000   0.000000   12.0000     0.2344
   11.000     0.000   2.138481   0.123081   0.024169   0.147251   0.000000   0.000000  -1.080286  -0.000000   0.000000   12.0000     0.2357
   11.250     0.000   2.160541   0.125550   0.024465   0.150016   0.000000   0.000000  -1.097161  -0.000000   0.000000   12.0000     0.2370
   11.500     0.000   2.182532   0.128038   0.024741   0.152779   0.000000   0.000000  -1.113985  -0.000000   0.000000   12.0000     0.2383
   11.750     0.000   2.204455   0.130544   0.025082   0.155626   0.000000   0.000000  -1.130761  -0.000000   0.000000   12.0000     0.2395
   12.000     0.000   2.226307   0.133068   0.025454   0.158522   0.000000   0.000000  -1.147486  -0.000000   0.000000   12.0000     0.2408
   12.250     0.000   2.248088   0.135609   0.025807   0.161415   0.000000   0.000000  -1.164156  -0.000000   0.000000   12.0000     0.2420
   12.500     0.000   2.269797   0.138167   0.026254   0.164421   0.000000   0.000000  -1.180777  -0.000000   0.000000   12.0000     0.2432
   12.750     0.000   2.291435   0.140742   0.026775   0.167517   0.000000   0.000000  -1.197349  -0.000000   0.000000   12.0000     0.2444
   13.000     0.000   2.312999   0.143332   0.027455   0.170787   0.000000   0.000000  -1.213875  -0.000000   0.000000   12.0000     0.2455
   13.250     0.000   2.334490   0.145939   0.028462   0.174401   0.000000   0.000000  -1.230368  -0.000000   0.000000   12.0000     0.2467
   13.500     0.000   2.355907   0.148561   0.029667   0.178228   0.000000   0.000000  -1.246820  -0.000000   0.000000   12.0000     0.2478


