xflr5 v6.57

Plane name :        R23_01_006_202_PP02_216in_AR_15,02
Polar name :        T1-12.0 m/s-VLM2
Freestream speed :  12.000 m/s


   alpha      Beta       CL          CDi        CDv        CD         CY         Cl         Cm         Cn        Cni       QInf        XCP
   -5.000     0.000   0.604919   0.008263   0.039471   0.047734   0.000000   0.000000  -0.541753   0.000000  -0.000000   12.0000     0.3377
   -4.750     0.000   0.628567   0.008906   0.037972   0.046877   0.000000   0.000000  -0.550640   0.000000  -0.000000   12.0000     0.3299
   -4.500     0.000   0.652199   0.009572   0.036575   0.046147   0.000000   0.000000  -0.559513   0.000000  -0.000000   12.0000     0.3228
   -4.250     0.000   0.675814   0.010262   0.034353   0.044615   0.000000   0.000000  -0.568393   0.000000  -0.000000   12.0000     0.3161
   -4.000     0.000   0.699412   0.010977   0.032102   0.043079   0.000000   0.000000  -0.577260   0.000000  -0.000000   12.0000     0.3099
   -3.750     0.000   0.722993   0.011715   0.030207   0.041922   0.000000   0.000000  -0.586105   0.000000  -0.000000   12.0000     0.3041
   -3.500     0.000   0.746554   0.012478   0.028340   0.040818   0.000000   0.000000  -0.594936   0.000000  -0.000000   12.0000     0.2987
   -3.250     0.000   0.770096   0.013264   0.026424   0.039687   0.000000   0.000000  -0.603752   0.000000   0.000000   12.0000     0.2936
   -3.000     0.000   0.793618   0.014073   0.024730   0.038803   0.000000   0.000000  -0.612550   0.000000   0.000000   12.0000     0.2888
   -2.750     0.000   0.817119   0.014906   0.023310   0.038217   0.000000   0.000000  -0.621329   0.000000   0.000000   12.0000     0.2843
   -2.500     0.000   0.840598   0.015763   0.021923   0.037686   0.000000   0.000000  -0.630092   0.000000   0.000000   12.0000     0.2801
   -2.250     0.000   0.864055   0.016643   0.020834   0.037477   0.000000   0.000000  -0.638834   0.000000   0.000000   12.0000     0.2760
   -2.000     0.000   0.887488   0.017546   0.019896   0.037442   0.000000   0.000000  -0.647560   0.000000   0.000000   12.0000     0.2722
   -1.750     0.000   0.910897   0.018473   0.019102   0.037574   0.000000   0.000000  -0.656268   0.000000   0.000000   12.0000     0.2686
   -1.500     0.000   0.934281   0.019422   0.018496   0.037919   0.000000   0.000000  -0.664959   0.000000   0.000000   12.0000     0.2652
   -1.250     0.000   0.957640   0.020395   0.017964   0.038358   0.000000   0.000000  -0.673633   0.000000   0.000000   12.0000     0.2619
   -1.000     0.000   0.980973   0.021390   0.017493   0.038883   0.000000   0.000000  -0.682291   0.000000   0.000000   12.0000     0.2588
   -0.750     0.000   1.004278   0.022408   0.017031   0.039439   0.000000   0.000000  -0.690933   0.000000   0.000000   12.0000     0.2559
   -0.500     0.000   1.027556   0.023448   0.016649   0.040098   0.000000   0.000000  -0.699557   0.000000   0.000000   12.0000     0.2531
   -0.250     0.000   1.050805   0.024511   0.016339   0.040851   0.000000   0.000000  -0.708164   0.000000   0.000000   12.0000     0.2504
    0.000     0.000   1.074025   0.025596   0.016062   0.041659   0.000000   0.000000  -0.716752   0.000000   0.000000   12.0000     0.2478
    0.250     0.000   1.097215   0.026704   0.015805   0.042508   0.000000   0.000000  -0.725323   0.000000   0.000000   12.0000     0.2453
    0.500     0.000   1.120374   0.027833   0.015645   0.043478   0.000000   0.000000  -0.733875   0.000000   0.000000   12.0000     0.2430
    0.750     0.000   1.143501   0.028984   0.015568   0.044552   0.000000   0.000000  -0.742408   0.000000   0.000000   12.0000     0.2407
    1.000     0.000   1.166597   0.030157   0.015577   0.045734   0.000000   0.000000  -0.750921   0.000000   0.000000   12.0000     0.2385
    1.250     0.000   1.189659   0.031351   0.015616   0.046968   0.000000   0.000000  -0.759415   0.000000   0.000000   12.0000     0.2365
    1.500     0.000   1.212688   0.032567   0.015662   0.048229   0.000000   0.000000  -0.767888   0.000000   0.000000   12.0000     0.2345
    1.750     0.000   1.235682   0.033804   0.015742   0.049546   0.000000   0.000000  -0.776340   0.000000   0.000000   12.0000     0.2325
    2.000     0.000   1.258642   0.035061   0.015820   0.050881   0.000000   0.000000  -0.784771   0.000000   0.000000   12.0000     0.2307
    2.250     0.000   1.281565   0.036340   0.015893   0.052233   0.000000   0.000000  -0.793179   0.000000   0.000000   12.0000     0.2289
    2.500     0.000   1.304452   0.037639   0.015976   0.053616   0.000000   0.000000  -0.801564   0.000000   0.000000   12.0000     0.2272
    2.750     0.000   1.327301   0.038959   0.016074   0.055033   0.000000   0.000000  -0.809925   0.000000   0.000000   12.0000     0.2255
    3.000     0.000   1.350113   0.040299   0.016196   0.056495   0.000000   0.000000  -0.818263   0.000000   0.000000   12.0000     0.2239
    3.250     0.000   1.372886   0.041659   0.016344   0.058003   0.000000   0.000000  -0.826577   0.000000   0.000000   12.0000     0.2224
    3.500     0.000   1.395619   0.043039   0.016541   0.059580   0.000000   0.000000  -0.834867   0.000000   0.000000   12.0000     0.2209
    3.750     0.000   1.418313   0.044439   0.016794   0.061233   0.000000   0.000000  -0.843131   0.000000   0.000000   12.0000     0.2194
    4.000     0.000   1.440965   0.045858   0.017169   0.063027   0.000000   0.000000  -0.851373   0.000000   0.000000   12.0000     0.2180
    4.250     0.000   1.463577   0.047297   0.017731   0.065028   0.000000   0.000000  -0.859592   0.000000   0.000000   12.0000     0.2167
    4.500     0.000   1.486146   0.048754   0.018406   0.067160   0.000000   0.000000  -0.867787   0.000000   0.000000   12.0000     0.2154
    4.750     0.000   1.508672   0.050230   0.019019   0.069249   0.000000   0.000000  -0.875954   0.000000   0.000000   12.0000     0.2141
    5.000     0.000   1.531154   0.051725   0.019609   0.071334   0.000000   0.000000  -0.884093   0.000000   0.000000   12.0000     0.2129
    5.250     0.000   1.553592   0.053238   0.020172   0.073410   0.000000   0.000000  -0.892203   0.000000   0.000000   12.0000     0.2117
    5.500     0.000   1.575986   0.054770   0.020714   0.075484   0.000000   0.000000  -0.900284   0.000000   0.000000   12.0000     0.2106
    5.750     0.000   1.598333   0.056319   0.021291   0.077611   0.000000   0.000000  -0.908336   0.000000   0.000000   12.0000     0.2094
    6.000     0.000   1.620635   0.057886   0.021882   0.079768   0.000000   0.000000  -0.916359   0.000000   0.000000   12.0000     0.2084
    6.250     0.000   1.642889   0.059471   0.022473   0.081944   0.000000   0.000000  -0.924351   0.000000   0.000000   12.0000     0.2073
    6.500     0.000   1.665096   0.061073   0.023089   0.084162   0.000000   0.000000  -0.932314   0.000000   0.000000   12.0000     0.2063
    6.750     0.000   1.687255   0.062691   0.023689   0.086380   0.000000   0.000000  -0.940244   0.000000   0.000000   12.0000     0.2053
    7.000     0.000   1.709365   0.064327   0.024280   0.088607   0.000000   0.000000  -0.948140   0.000000   0.000000   12.0000     0.2043
    7.250     0.000   1.731425   0.065979   0.024858   0.090837   0.000000   0.000000  -0.956003   0.000000   0.000000   12.0000     0.2034
    7.500     0.000   1.753435   0.067647   0.025406   0.093053   0.000000   0.000000  -0.963831   0.000000   0.000000   12.0000     0.2025
    7.750     0.000   1.775394   0.069331   0.025963   0.095294   0.000000   0.000000  -0.971625   0.000000   0.000000   12.0000     0.2016
    8.000     0.000   1.797301   0.071030   0.026508   0.097538   0.000000   0.000000  -0.979383   0.000000   0.000000   12.0000     0.2007
    8.250     0.000   1.819156   0.072745   0.027075   0.099820   0.000000   0.000000  -0.987106   0.000000   0.000000   12.0000     0.1999
    8.500     0.000   1.840959   0.074476   0.027661   0.102137   0.000000   0.000000  -0.994794   0.000000   0.000000   12.0000     0.1990
    8.750     0.000   1.862708   0.076221   0.028271   0.104492   0.000000   0.000000  -1.002447   0.000000   0.000000   12.0000     0.1982
    9.000     0.000   1.884403   0.077981   0.028872   0.106853   0.000000   0.000000  -1.010062   0.000000   0.000000   12.0000     0.1975
    9.250     0.000   1.906044   0.079755   0.029494   0.109248   0.000000   0.000000  -1.017641   0.000000   0.000000   12.0000     0.1967
    9.500     0.000   1.927629   0.081543   0.030100   0.111643   0.000000   0.000000  -1.025182   0.000000   0.000000   12.0000     0.1960
    9.750     0.000   1.949158   0.083345   0.030737   0.114082   0.000000   0.000000  -1.032685   0.000000   0.000000   12.0000     0.1952
   10.000     0.000   1.970631   0.085160   0.031544   0.116704   0.000000   0.000000  -1.040157   0.000000   0.000000   12.0000     0.1945
   10.250     0.000   1.992046   0.086989   0.032478   0.119467   0.000000   0.000000  -1.047598   0.000000   0.000000   12.0000     0.1938
   10.500     0.000   2.013404   0.088830   0.033384   0.122214   0.000000   0.000000  -1.054996   0.000000   0.000000   12.0000     0.1932
   10.750     0.000   2.034704   0.090684   0.034380   0.125064   0.000000   0.000000  -1.062360   0.000000   0.000000   12.0000     0.1925
   11.000     0.000   2.055944   0.092550   0.035530   0.128080   0.000000   0.000000  -1.069693   0.000000   0.000000   12.0000     0.1919
   11.250     0.000   2.077126   0.094429   0.036674   0.131103   0.000000   0.000000  -1.076984   0.000000   0.000000   12.0000     0.1913
   11.500     0.000   2.098247   0.096319   0.038055   0.134374   0.000000   0.000000  -1.084247   0.000000   0.000000   12.0000     0.1906
   11.750     0.000   2.119307   0.098220   0.039493   0.137713   0.000000   0.000000  -1.091475   0.000000   0.000000   12.0000     0.1900
   12.000     0.000   2.140306   0.100133   0.041313   0.141446   0.000000   0.000000  -1.098684   0.000000   0.000000   12.0000     0.1895
   12.250     0.000   2.161244   0.102056   0.043044   0.145100   0.000000   0.000000  -1.105846   0.000000   0.000000   12.0000     0.1889
   12.500     0.000   2.182119   0.103990   0.045636   0.149626   0.000000   0.000000  -1.113023   0.000000   0.000000   12.0000     0.1883
   12.750     0.000   2.202931   0.105934   0.048219   0.154153   0.000000   0.000000  -1.120160   0.000000   0.000000   12.0000     0.1878
   13.000     0.000   2.223680   0.107887   0.052212   0.160100   0.000000   0.000000  -1.127356   0.000000   0.000000   12.0000     0.1873
   13.250     0.000   2.244365   0.109850   0.058004   0.167854   0.000000   0.000000  -1.134631   0.000000   0.000000   12.0000     0.1867


