xflr5 v6.57

Plane name :        R23_02_203_202_PP02_216in_AR_15,02
Polar name :        T1-12.0 m/s-VLM2
Freestream speed :  12.000 m/s


   alpha      Beta       CL          CDi        CDv        CD         CY         Cl         Cm         Cn        Cni       QInf        XCP
   -5.000     0.000   0.641472   0.009052   0.034182   0.043234   0.000000   0.000000  -0.568088   0.000000  -0.000000   12.0000     0.3337
   -4.750     0.000   0.665098   0.009727   0.031902   0.041629   0.000000   0.000000  -0.577005   0.000000  -0.000000   12.0000     0.3266
   -4.500     0.000   0.688707   0.010425   0.030247   0.040672   0.000000   0.000000  -0.585891   0.000000  -0.000000   12.0000     0.3199
   -4.250     0.000   0.712299   0.011147   0.028813   0.039960   0.000000   0.000000  -0.594760   0.000000  -0.000000   12.0000     0.3137
   -4.000     0.000   0.735873   0.011893   0.027422   0.039316   0.000000   0.000000  -0.603615   0.000000  -0.000000   12.0000     0.3079
   -3.750     0.000   0.759428   0.012663   0.026075   0.038738   0.000000   0.000000  -0.612455   0.000000  -0.000000   12.0000     0.3025
   -3.500     0.000   0.782964   0.013457   0.024781   0.038238   0.000000   0.000000  -0.621281   0.000000  -0.000000   12.0000     0.2973
   -3.250     0.000   0.806479   0.014274   0.023526   0.037801   0.000000   0.000000  -0.630091   0.000000   0.000000   12.0000     0.2925
   -3.000     0.000   0.829972   0.015115   0.022312   0.037427   0.000000   0.000000  -0.638886   0.000000   0.000000   12.0000     0.2880
   -2.750     0.000   0.853444   0.015980   0.021112   0.037092   0.000000   0.000000  -0.647666   0.000000   0.000000   12.0000     0.2837
   -2.500     0.000   0.876893   0.016867   0.020086   0.036954   0.000000   0.000000  -0.656427   0.000000   0.000000   12.0000     0.2796
   -2.250     0.000   0.900318   0.017779   0.019255   0.037034   0.000000   0.000000  -0.665169   0.000000   0.000000   12.0000     0.2758
   -2.000     0.000   0.923719   0.018713   0.018532   0.037245   0.000000   0.000000  -0.673893   0.000000   0.000000   12.0000     0.2722
   -1.750     0.000   0.947095   0.019670   0.017861   0.037531   0.000000   0.000000  -0.682601   0.000000   0.000000   12.0000     0.2687
   -1.500     0.000   0.970446   0.020650   0.017492   0.038142   0.000000   0.000000  -0.691289   0.000000   0.000000   12.0000     0.2654
   -1.250     0.000   0.993770   0.021653   0.017194   0.038847   0.000000   0.000000  -0.699960   0.000000   0.000000   12.0000     0.2623
   -1.000     0.000   1.017066   0.022679   0.016932   0.039611   0.000000   0.000000  -0.708615   0.000000   0.000000   12.0000     0.2593
   -0.750     0.000   1.040335   0.023727   0.016651   0.040379   0.000000   0.000000  -0.717253   0.000000   0.000000   12.0000     0.2564
   -0.500     0.000   1.063575   0.024798   0.016426   0.041225   0.000000   0.000000  -0.725872   0.000000   0.000000   12.0000     0.2537
   -0.250     0.000   1.086785   0.025891   0.016228   0.042119   0.000000   0.000000  -0.734474   0.000000   0.000000   12.0000     0.2511
    0.000     0.000   1.109965   0.027006   0.016061   0.043068   0.000000   0.000000  -0.743056   0.000000   0.000000   12.0000     0.2486
    0.250     0.000   1.133114   0.028144   0.015909   0.044053   0.000000   0.000000  -0.751619   0.000000   0.000000   12.0000     0.2462
    0.500     0.000   1.156232   0.029303   0.015791   0.045093   0.000000   0.000000  -0.760163   0.000000   0.000000   12.0000     0.2439
    0.750     0.000   1.179317   0.030483   0.015705   0.046188   0.000000   0.000000  -0.768686   0.000000   0.000000   12.0000     0.2417
    1.000     0.000   1.202369   0.031685   0.015635   0.047320   0.000000   0.000000  -0.777188   0.000000   0.000000   12.0000     0.2396
    1.250     0.000   1.225387   0.032909   0.015586   0.048494   0.000000   0.000000  -0.785669   0.000000   0.000000   12.0000     0.2375
    1.500     0.000   1.248370   0.034154   0.015542   0.049696   0.000000   0.000000  -0.794127   0.000000   0.000000   12.0000     0.2356
    1.750     0.000   1.271318   0.035419   0.015553   0.050972   0.000000   0.000000  -0.802564   0.000000   0.000000   12.0000     0.2337
    2.000     0.000   1.294231   0.036706   0.015590   0.052296   0.000000   0.000000  -0.810978   0.000000   0.000000   12.0000     0.2319
    2.250     0.000   1.317106   0.038013   0.015654   0.053667   0.000000   0.000000  -0.819368   0.000000   0.000000   12.0000     0.2301
    2.500     0.000   1.339944   0.039341   0.015741   0.055082   0.000000   0.000000  -0.827734   0.000000   0.000000   12.0000     0.2284
    2.750     0.000   1.362743   0.040689   0.015857   0.056546   0.000000   0.000000  -0.836076   0.000000   0.000000   12.0000     0.2268
    3.000     0.000   1.385504   0.042057   0.016005   0.058062   0.000000   0.000000  -0.844393   0.000000   0.000000   12.0000     0.2252
    3.250     0.000   1.408225   0.043445   0.016190   0.059635   0.000000   0.000000  -0.852685   0.000000   0.000000   12.0000     0.2237
    3.500     0.000   1.430906   0.044853   0.016410   0.061262   0.000000   0.000000  -0.860951   0.000000   0.000000   12.0000     0.2222
    3.750     0.000   1.453546   0.046280   0.016677   0.062957   0.000000   0.000000  -0.869191   0.000000   0.000000   12.0000     0.2208
    4.000     0.000   1.476144   0.047726   0.017006   0.064732   0.000000   0.000000  -0.877405   0.000000   0.000000   12.0000     0.2194
    4.250     0.000   1.498699   0.049192   0.017462   0.066653   0.000000   0.000000  -0.885595   0.000000   0.000000   12.0000     0.2181
    4.500     0.000   1.521212   0.050676   0.018182   0.068858   0.000000   0.000000  -0.893763   0.000000   0.000000   12.0000     0.2168
    4.750     0.000   1.543681   0.052179   0.019299   0.071478   0.000000   0.000000  -0.901913   0.000000   0.000000   12.0000     0.2155
    5.000     0.000   1.566105   0.053700   0.020258   0.073958   0.000000   0.000000  -0.910031   0.000000   0.000000   12.0000     0.2143
    5.250     0.000   1.588484   0.055240   0.021143   0.076383   0.000000   0.000000  -0.918119   0.000000   0.000000   12.0000     0.2131
    5.500     0.000   1.610818   0.056797   0.022010   0.078807   0.000000   0.000000  -0.926178   0.000000   0.000000   12.0000     0.2120
    5.750     0.000   1.633105   0.058372   0.022896   0.081268   0.000000   0.000000  -0.934207   0.000000   0.000000   12.0000     0.2109
    6.000     0.000   1.655345   0.059965   0.023733   0.083698   0.000000   0.000000  -0.942204   0.000000   0.000000   12.0000     0.2098
    6.250     0.000   1.677537   0.061575   0.024560   0.086135   0.000000   0.000000  -0.950170   0.000000   0.000000   12.0000     0.2088
    6.500     0.000   1.699680   0.063202   0.025382   0.088584   0.000000   0.000000  -0.958104   0.000000   0.000000   12.0000     0.2077
    6.750     0.000   1.721775   0.064845   0.026175   0.091020   0.000000   0.000000  -0.966004   0.000000   0.000000   12.0000     0.2067
    7.000     0.000   1.743819   0.066505   0.026928   0.093433   0.000000   0.000000  -0.973870   0.000000   0.000000   12.0000     0.2058
    7.250     0.000   1.765813   0.068182   0.027678   0.095859   0.000000   0.000000  -0.981701   0.000000   0.000000   12.0000     0.2048
    7.500     0.000   1.787756   0.069874   0.028405   0.098279   0.000000   0.000000  -0.989497   0.000000   0.000000   12.0000     0.2039
    7.750     0.000   1.809648   0.071582   0.029299   0.100881   0.000000   0.000000  -0.997264   0.000000   0.000000   12.0000     0.2030
    8.000     0.000   1.831487   0.073305   0.030258   0.103563   0.000000   0.000000  -1.004999   0.000000   0.000000   12.0000     0.2022
    8.250     0.000   1.853273   0.075044   0.031318   0.106362   0.000000   0.000000  -1.012702   0.000000   0.000000   12.0000     0.2013
    8.500     0.000   1.875005   0.076797   0.032447   0.109244   0.000000   0.000000  -1.020373   0.000000   0.000000   12.0000     0.2005
    8.750     0.000   1.896683   0.078565   0.033697   0.112262   0.000000   0.000000  -1.028013   0.000000   0.000000   12.0000     0.1997
    9.000     0.000   1.918306   0.080348   0.035074   0.115422   0.000000   0.000000  -1.035623   0.000000   0.000000   12.0000     0.1989
    9.250     0.000   1.939874   0.082144   0.036556   0.118700   0.000000   0.000000  -1.043201   0.000000   0.000000   12.0000     0.1982
    9.500     0.000   1.961385   0.083954   0.038275   0.122229   0.000000   0.000000  -1.050754   0.000000   0.000000   12.0000     0.1974
    9.750     0.000   1.982840   0.085778   0.040170   0.125948   0.000000   0.000000  -1.058279   0.000000   0.000000   12.0000     0.1967
   10.000     0.000   2.004238   0.087615   0.042343   0.129958   0.000000   0.000000  -1.065782   0.000000   0.000000   12.0000     0.1960
   10.250     0.000   2.025578   0.089465   0.044879   0.134343   0.000000   0.000000  -1.073266   0.000000   0.000000   12.0000     0.1953
   10.500     0.000   2.046859   0.091327   0.047974   0.139301   0.000000   0.000000  -1.080745   0.000000   0.000000   12.0000     0.1946
   10.750     0.000   2.068081   0.093202   0.051804   0.145006   0.000000   0.000000  -1.088230   0.000000   0.000000   12.0000     0.1940
   11.000     0.000   2.089243   0.095089   0.057187   0.152275   0.000000   0.000000  -1.095770   0.000000   0.000000   12.0000     0.1933
   11.250     0.000   2.110345   0.096987   0.058732   0.155720   0.000000   0.000000  -1.103062   0.000000   0.000000   12.0000     0.1927
   11.500     0.000   2.131386   0.098897   0.058895   0.157792   0.000000   0.000000  -1.110214   0.000000   0.000000   12.0000     0.1921
   11.750     0.000   2.152366   0.100818   0.056994   0.157813   0.000000   0.000000  -1.117198   0.000000   0.000000   12.0000     0.1915


