xflr5 v6.57

Plane name :        R23_LR315_120in_AR_5,53
Polar name :        R23_LR315_120in_AR_5,53-12.0 m/s-VLM2
Freestream speed :  12.000 m/s


   alpha      Beta       CL          CDi        CDv        CD         CY         Cl         Cm         Cn        Cni       QInf        XCP
  -10.000     0.000   0.130470   0.001046   0.129352   0.130398   0.000000   0.000000  -0.349103   0.000000   0.000000   12.0000     1.5985
   -9.900     0.000   0.138000   0.001161   0.128461   0.129622   0.000000   0.000000  -0.352084   0.000000   0.000000   12.0000     1.5227
   -9.800     0.000   0.145531   0.001283   0.127933   0.129216   0.000000   0.000000  -0.355047   0.000000   0.000000   12.0000     1.4546
   -9.700     0.000   0.153061   0.001411   0.127661   0.129072   0.000000   0.000000  -0.357997   0.000000   0.000000   12.0000     1.3933
   -9.600     0.000   0.160592   0.001546   0.127100   0.128646   0.000000   0.000000  -0.360959   0.000000   0.000000   12.0000     1.3377
   -9.500     0.000   0.168123   0.001687   0.126384   0.128071   0.000000   0.000000  -0.363927   0.000000   0.000000   12.0000     1.2870
   -9.400     0.000   0.175654   0.001835   0.125842   0.127676   0.000000   0.000000  -0.366884   0.000000   0.000000   12.0000     1.2408
   -9.300     0.000   0.183185   0.001989   0.125044   0.127033   0.000000   0.000000  -0.369854   0.000000   0.000000   12.0000     1.1983
   -9.200     0.000   0.190716   0.002149   0.123903   0.126053   0.000000   0.000000  -0.372847   0.000000   0.000000   12.0000     1.1591
   -9.100     0.000   0.198247   0.002316   0.123012   0.125328   0.000000   0.000000  -0.375827   0.000000   0.000000   12.0000     1.1230
   -9.000     0.000   0.205777   0.002490   0.122083   0.124573   0.000000   0.000000  -0.378804   0.000000   0.000000   12.0000     1.0895
   -8.900     0.000   0.213308   0.002670   0.120895   0.123565   0.000000   0.000000  -0.381791   0.000000   0.000000   12.0000     1.0583
   -8.800     0.000   0.220838   0.002857   0.119381   0.122238   0.000000   0.000000  -0.384801   0.000000   0.000000   12.0000     1.0293
   -8.700     0.000   0.228368   0.003050   0.117842   0.120891   0.000000   0.000000  -0.387811   0.000000   0.000000   12.0000     1.0022
   -8.600     0.000   0.235897   0.003249   0.116247   0.119496   0.000000   0.000000  -0.390822   0.000000   0.000000   12.0000     0.9768
   -8.500     0.000   0.243426   0.003455   0.114487   0.117942   0.000000   0.000000  -0.393839   0.000000   0.000000   12.0000     0.9530
   -8.400     0.000   0.250955   0.003668   0.112678   0.116346   0.000000   0.000000  -0.396857   0.000000   0.000000   12.0000     0.9306
   -8.300     0.000   0.258482   0.003887   0.110899   0.114786   0.000000   0.000000  -0.399873   0.000000   0.000000   12.0000     0.9095
   -8.200     0.000   0.266010   0.004112   0.108835   0.112947   0.000000   0.000000  -0.402900   0.000000   0.000000   12.0000     0.8896
   -8.100     0.000   0.273536   0.004344   0.107007   0.111352   0.000000   0.000000  -0.405915   0.000000   0.000000   12.0000     0.8708
   -8.000     0.000   0.281062   0.004583   0.105485   0.110067   0.000000   0.000000  -0.408915   0.000000   0.000000   12.0000     0.8530
   -7.900     0.000   0.288587   0.004828   0.104172   0.108999   0.000000   0.000000  -0.411899   0.000000   0.000000   12.0000     0.8361
   -7.800     0.000   0.296111   0.005079   0.102732   0.107811   0.000000   0.000000  -0.414892   0.000000   0.000000   12.0000     0.8201
   -7.700     0.000   0.303634   0.005337   0.101102   0.106439   0.000000   0.000000  -0.417896   0.000000   0.000000   12.0000     0.8049
   -7.600     0.000   0.311157   0.005601   0.099733   0.105335   0.000000   0.000000  -0.420880   0.000000   0.000000   12.0000     0.7904
   -7.500     0.000   0.318678   0.005872   0.098190   0.104063   0.000000   0.000000  -0.423875   0.000000   0.000000   12.0000     0.7766
   -7.400     0.000   0.326198   0.006150   0.096639   0.102789   0.000000   0.000000  -0.426867   0.000000   0.000000   12.0000     0.7635
   -7.300     0.000   0.333717   0.006434   0.094780   0.101214   0.000000   0.000000  -0.429872   0.000000   0.000000   12.0000     0.7509
   -7.200     0.000   0.341235   0.006724   0.092960   0.099684   0.000000   0.000000  -0.432872   0.000000   0.000000   12.0000     0.7389
   -7.100     0.000   0.348752   0.007021   0.091175   0.098196   0.000000   0.000000  -0.435868   0.000000   0.000000   12.0000     0.7274
   -7.000     0.000   0.356267   0.007324   0.089559   0.096884   0.000000   0.000000  -0.438853   0.000000   0.000000   12.0000     0.7164
   -6.900     0.000   0.363781   0.007634   0.087976   0.095610   0.000000   0.000000  -0.441837   0.000000   0.000000   12.0000     0.7058
   -6.800     0.000   0.371293   0.007951   0.086388   0.094338   0.000000   0.000000  -0.444817   0.000000   0.000000   12.0000     0.6957
   -6.700     0.000   0.378804   0.008273   0.084324   0.092597   0.000000   0.000000  -0.447810   0.000000   0.000000   12.0000     0.6860
   -6.600     0.000   0.386314   0.008603   0.081930   0.090532   0.000000   0.000000  -0.450814   0.000000   0.000000   12.0000     0.6767
   -6.500     0.000   0.393821   0.008938   0.079634   0.088573   0.000000   0.000000  -0.453815   0.000000   0.000000   12.0000     0.6677
   -6.400     0.000   0.401328   0.009280   0.077486   0.086767   0.000000   0.000000  -0.456809   0.000000   0.000000   12.0000     0.6590
   -6.300     0.000   0.408832   0.009629   0.075568   0.085198   0.000000   0.000000  -0.459790   0.000000   0.000000   12.0000     0.6507
   -6.200     0.000   0.416335   0.009984   0.073909   0.083893   0.000000   0.000000  -0.462755   0.000000   0.000000   12.0000     0.6427
   -6.100     0.000   0.423836   0.010346   0.071657   0.082003   0.000000   0.000000  -0.465737   0.000000   0.000000   12.0000     0.6349
   -6.000     0.000   0.431335   0.010714   0.069530   0.080243   0.000000   0.000000  -0.468714   0.000000   0.000000   12.0000     0.6274
   -5.900     0.000   0.438832   0.011088   0.067692   0.078781   0.000000   0.000000  -0.471681   0.000000   0.000000   12.0000     0.6202
   -5.800     0.000   0.446327   0.011469   0.066079   0.077548   0.000000   0.000000  -0.474639   0.000000   0.000000   12.0000     0.6132
   -5.700     0.000   0.453820   0.011856   0.064394   0.076251   0.000000   0.000000  -0.477599   0.000000   0.000000   12.0000     0.6065
   -5.600     0.000   0.461311   0.012250   0.063125   0.075375   0.000000   0.000000  -0.480540   0.000000   0.000000   12.0000     0.6000
   -5.500     0.000   0.468800   0.012650   0.061924   0.074575   0.000000   0.000000  -0.483476   0.000000   0.000000   12.0000     0.5937
   -5.400     0.000   0.476286   0.013057   0.060789   0.073846   0.000000   0.000000  -0.486406   0.000000   0.000000   12.0000     0.5875
   -5.300     0.000   0.483771   0.013470   0.059677   0.073147   0.000000   0.000000  -0.489332   0.000000   0.000000   12.0000     0.5816
   -5.200     0.000   0.491253   0.013889   0.058426   0.072316   0.000000   0.000000  -0.492260   0.000000   0.000000   12.0000     0.5759
   -5.100     0.000   0.498732   0.014315   0.056900   0.071215   0.000000   0.000000  -0.495196   0.000000   0.000000   12.0000     0.5703
   -5.000     0.000   0.506209   0.014747   0.055498   0.070246   0.000000   0.000000  -0.498124   0.000000   0.000000   12.0000     0.5649
   -4.900     0.000   0.513684   0.015186   0.054225   0.069411   0.000000   0.000000  -0.501045   0.000000   0.000000   12.0000     0.5597
   -4.800     0.000   0.521156   0.015631   0.053096   0.068727   0.000000   0.000000  -0.503959   0.000000   0.000000   12.0000     0.5546
   -4.700     0.000   0.528625   0.016082   0.052222   0.068304   0.000000   0.000000  -0.506864   0.000000   0.000000   12.0000     0.5496
   -4.600     0.000   0.536092   0.016540   0.051497   0.068037   0.000000   0.000000  -0.509763   0.000000   0.000000   12.0000     0.5448
   -4.500     0.000   0.543556   0.017004   0.050819   0.067823   0.000000   0.000000  -0.512657   0.000000   0.000000   12.0000     0.5401
   -4.400     0.000   0.551017   0.017475   0.050102   0.067577   0.000000   0.000000  -0.515551   0.000000   0.000000   12.0000     0.5356
   -4.300     0.000   0.558476   0.017952   0.049351   0.067303   0.000000   0.000000  -0.518443   0.000000   0.000000   12.0000     0.5311
   -4.200     0.000   0.565931   0.018435   0.048412   0.066847   0.000000   0.000000  -0.521339   0.000000   0.000000   12.0000     0.5268
   -4.100     0.000   0.573384   0.018924   0.047414   0.066338   0.000000   0.000000  -0.524234   0.000000   0.000000   12.0000     0.5226
   -4.000     0.000   0.580833   0.019420   0.046446   0.065866   0.000000   0.000000  -0.527124   0.000000   0.000000   12.0000     0.5186
   -3.900     0.000   0.588280   0.019922   0.045496   0.065418   0.000000   0.000000  -0.530011   0.000000   0.000000   12.0000     0.5146
   -3.800     0.000   0.595723   0.020431   0.044534   0.064964   0.000000   0.000000  -0.532896   0.000000   0.000000   12.0000     0.5107
   -3.700     0.000   0.603163   0.020945   0.043622   0.064567   0.000000   0.000000  -0.535776   0.000000   0.000000   12.0000     0.5069
   -3.600     0.000   0.610600   0.021466   0.042761   0.064227   0.000000   0.000000  -0.538653   0.000000   0.000000   12.0000     0.5032
   -3.500     0.000   0.618034   0.021994   0.042208   0.064202   0.000000   0.000000  -0.541522   0.000000   0.000000   12.0000     0.4996
   -3.400     0.000   0.625464   0.022527   0.041650   0.064178   0.000000   0.000000  -0.544389   0.000000   0.000000   12.0000     0.4961
   -3.300     0.000   0.632891   0.023067   0.040974   0.064041   0.000000   0.000000  -0.547255   0.000000   0.000000   12.0000     0.4927
   -3.200     0.000   0.640315   0.023613   0.040207   0.063820   0.000000   0.000000  -0.550121   0.000000   0.000000   12.0000     0.4893
   -3.100     0.000   0.647735   0.024165   0.039360   0.063525   0.000000   0.000000  -0.552987   0.000000   0.000000   12.0000     0.4860
   -3.000     0.000   0.655151   0.024724   0.038518   0.063242   0.000000   0.000000  -0.555849   0.000000   0.000000   12.0000     0.4829
   -2.900     0.000   0.662564   0.025289   0.037712   0.063001   0.000000   0.000000  -0.558708   0.000000   0.000000   12.0000     0.4797
   -2.800     0.000   0.669973   0.025860   0.036863   0.062723   0.000000   0.000000  -0.561566   0.000000   0.000000   12.0000     0.4767
   -2.700     0.000   0.677378   0.026437   0.035994   0.062432   0.000000   0.000000  -0.564421   0.000000   0.000000   12.0000     0.4737
   -2.600     0.000   0.684780   0.027021   0.035129   0.062149   0.000000   0.000000  -0.567272   0.000000   0.000000   12.0000     0.4708
   -2.500     0.000   0.692177   0.027610   0.034274   0.061884   0.000000   0.000000  -0.570121   0.000000   0.000000   12.0000     0.4679
   -2.400     0.000   0.699571   0.028206   0.033450   0.061656   0.000000   0.000000  -0.572967   0.000000   0.000000   12.0000     0.4651
   -2.300     0.000   0.706961   0.028808   0.032633   0.061441   0.000000   0.000000  -0.575809   0.000000   0.000000   12.0000     0.4624
   -2.200     0.000   0.714347   0.029416   0.031807   0.061223   0.000000   0.000000  -0.578649   0.000000   0.000000   12.0000     0.4597
   -2.100     0.000   0.721729   0.030030   0.031010   0.061040   0.000000   0.000000  -0.581486   0.000000   0.000000   12.0000     0.4571
   -2.000     0.000   0.729106   0.030650   0.030302   0.060952   0.000000   0.000000  -0.584318   0.000000   0.000000   12.0000     0.4545
   -1.900     0.000   0.736480   0.031277   0.029683   0.060959   0.000000   0.000000  -0.587148   0.000000   0.000000   12.0000     0.4520
   -1.800     0.000   0.743849   0.031909   0.029268   0.061177   0.000000   0.000000  -0.589972   0.000000   0.000000   12.0000     0.4495
   -1.700     0.000   0.751214   0.032548   0.028938   0.061486   0.000000   0.000000  -0.592792   0.000000   0.000000   12.0000     0.4471
   -1.600     0.000   0.758575   0.033193   0.028537   0.061730   0.000000   0.000000  -0.595611   0.000000   0.000000   12.0000     0.4448
   -1.500     0.000   0.765931   0.033844   0.028091   0.061934   0.000000   0.000000  -0.598428   0.000000   0.000000   12.0000     0.4424
   -1.400     0.000   0.773283   0.034500   0.027562   0.062062   0.000000   0.000000  -0.601243   0.000000   0.000000   12.0000     0.4402
   -1.300     0.000   0.780630   0.035163   0.026937   0.062100   0.000000   0.000000  -0.604056   0.000000   0.000000   12.0000     0.4379
   -1.200     0.000   0.787973   0.035832   0.025778   0.061610   0.000000   0.000000  -0.606869   0.000000   0.000000   12.0000     0.4357
   -1.100     0.000   0.795311   0.036507   0.024131   0.060638   0.000000   0.000000  -0.609682   0.000000   0.000000   12.0000     0.4336
   -1.000     0.000   0.802644   0.037188   0.022616   0.059804   0.000000   0.000000  -0.612490   0.000000   0.000000   12.0000     0.4315
   -0.900     0.000   0.809973   0.037875   0.021955   0.059830   0.000000   0.000000  -0.615290   0.000000   0.000000   12.0000     0.4294
   -0.800     0.000   0.817297   0.038568   0.022061   0.060629   0.000000   0.000000  -0.618083   0.000000   0.000000   12.0000     0.4274
   -0.700     0.000   0.824616   0.039266   0.022075   0.061342   0.000000   0.000000  -0.620873   0.000000   0.000000   12.0000     0.4254
   -0.600     0.000   0.831930   0.039971   0.021828   0.061799   0.000000   0.000000  -0.623663   0.000000   0.000000   12.0000     0.4235
   -0.500     0.000   0.839239   0.040682   0.021485   0.062167   0.000000   0.000000  -0.626450   0.000000   0.000000   12.0000     0.4215
   -0.400     0.000   0.846544   0.041398   0.021154   0.062552   0.000000   0.000000  -0.629233   0.000000   0.000000   12.0000     0.4197
   -0.300     0.000   0.853843   0.042121   0.020873   0.062993   0.000000   0.000000  -0.632014   0.000000   0.000000   12.0000     0.4178
   -0.200     0.000   0.861137   0.042849   0.020631   0.063480   0.000000   0.000000  -0.634792   0.000000   0.000000   12.0000     0.4160
    0.000     0.000   0.875710   0.044323   0.020218   0.064541   0.000000   0.000000  -0.640338   0.000000   0.000000   12.0000     0.4124
    1.000     0.000   0.948249   0.052042   0.018394   0.070436   0.000000   0.000000  -0.667895   0.000000   0.000000   12.0000     0.3964
    2.000     0.000   1.020210   0.060327   0.017268   0.077595   0.000000   0.000000  -0.695144   0.000000   0.000000   12.0000     0.3828
    3.000     0.000   1.091539   0.069160   0.016647   0.085807   0.000000   0.000000  -0.722064  -0.000000   0.000000   12.0000     0.3711
    4.000     0.000   1.162187   0.078520   0.016249   0.094769   0.000000   0.000000  -0.748627   0.000000   0.000000   12.0000     0.3609
    5.000     0.000   1.232103   0.088386   0.016011   0.104397   0.000000   0.000000  -0.774802   0.000000   0.000000   12.0000     0.3520
    6.000     0.000   1.301239   0.098735   0.016120   0.114854   0.000000   0.000000  -0.800571  -0.000000   0.000000   12.0000     0.3441
    7.000     0.000   1.369547   0.109540   0.016328   0.125868   0.000000   0.000000  -0.825898   0.000000   0.000000   12.0000     0.3372
    8.000     0.000   1.436983   0.120776   0.016477   0.137253   0.000000   0.000000  -0.850742   0.000000   0.000000   12.0000     0.3310
    9.000     0.000   1.503501   0.132415   0.016638   0.149053   0.000000   0.000000  -0.875080   0.000000   0.000000   12.0000     0.3254
   10.000     0.000   1.569059   0.144428   0.016812   0.161240   0.000000   0.000000  -0.898882   0.000000   0.000000   12.0000     0.3205
   11.000     0.000   1.633617   0.156784   0.016879   0.173662   0.000000   0.000000  -0.922112   0.000000   0.000000   12.0000     0.3160
   12.000     0.000   1.697134   0.169451   0.017115   0.186566   0.000000   0.000000  -0.944756   0.000000   0.000000   12.0000     0.3120
   13.000     0.000   1.759575   0.182396   0.017471   0.199868   0.000000   0.000000  -0.966789   0.000000   0.000000   12.0000     0.3083
   14.000     0.000   1.820902   0.195587   0.017857   0.213443   0.000000   0.000000  -0.988179   0.000000   0.000000   12.0000     0.3050
   15.000     0.000   1.881083   0.208987   0.018291   0.227279   0.000000   0.000000  -1.008902   0.000000   0.000000   12.0000     0.3020
   16.000     0.000   1.940085   0.222563   0.018754   0.241317   0.000000   0.000000  -1.028933   0.000000   0.000000   12.0000     0.2993


