xflr5 v6.57

Plane name :        R23_LR315_192in_AR_10,06
Polar name :        T1-12.0 m/s-VLM2
Freestream speed :  12.000 m/s


   alpha      Beta       CL          CDi        CDv        CD         CY         Cl         Cm         Cn        Cni       QInf        XCP
   -5.000     0.000   0.569295   0.010361   0.049620   0.059981   0.000000   0.000000  -0.526227   0.000000   0.000000   12.0000     0.4657
   -4.500     0.000   0.613497   0.012030   0.044850   0.056880   0.000000   0.000000  -0.543404   0.000000   0.000000   12.0000     0.4452
   -4.000     0.000   0.657632   0.013822   0.039946   0.053768   0.000000   0.000000  -0.560528   0.000000   0.000000   12.0000     0.4274
   -3.500     0.000   0.701694   0.015737   0.035695   0.051432   0.000000   0.000000  -0.577582   0.000000   0.000000   12.0000     0.4120
   -3.000     0.000   0.745675   0.017775   0.031916   0.049691   0.000000   0.000000  -0.594569   0.000000   0.000000   12.0000     0.3983
   -2.500     0.000   0.789569   0.019934   0.026833   0.046767   0.000000   0.000000  -0.611515   0.000000   0.000000   12.0000     0.3862
   -2.000     0.000   0.833370   0.022213   0.023667   0.045880   0.000000   0.000000  -0.628365   0.000000   0.000000   12.0000     0.3754
   -1.500     0.000   0.877070   0.024611   0.021737   0.046348   0.000000   0.000000  -0.645137   0.000000   0.000000   12.0000     0.3657
   -1.000     0.000   0.920665   0.027127   0.019811   0.046938   0.000000   0.000000  -0.661844   0.000000   0.000000   12.0000     0.3569
   -0.500     0.000   0.964146   0.029760   0.018626   0.048386   0.000000   0.000000  -0.678478   0.000000   0.000000   12.0000     0.3489
    0.000     0.000   1.007508   0.032508   0.017789   0.050297   0.000000   0.000000  -0.695042   0.000000   0.000000   12.0000     0.3416
    0.500     0.000   1.050744   0.035370   0.017319   0.052689   0.000000   0.000000  -0.711535   0.000000   0.000000   12.0000     0.3350
    1.000     0.000   1.093848   0.038344   0.016907   0.055251   0.000000   0.000000  -0.727954   0.000000   0.000000   12.0000     0.3289
    1.500     0.000   1.136814   0.041430   0.016755   0.058184   0.000000   0.000000  -0.744297  -0.000000   0.000000   12.0000     0.3232
    2.000     0.000   1.179636   0.044624   0.016464   0.061087   0.000000   0.000000  -0.760557   0.000000   0.000000   12.0000     0.3180
    2.500     0.000   1.222307   0.047925   0.016786   0.064711   0.000000   0.000000  -0.776740   0.000000   0.000000   12.0000     0.3132
    3.000     0.000   1.264821   0.051332   0.016781   0.068113   0.000000   0.000000  -0.792827   0.000000   0.000000   12.0000     0.3087
    3.500     0.000   1.307172   0.054842   0.016852   0.071694   0.000000   0.000000  -0.808821   0.000000   0.000000   12.0000     0.3045
    4.000     0.000   1.349354   0.058454   0.016918   0.075372   0.000000   0.000000  -0.824715   0.000000   0.000000   12.0000     0.3006
    4.500     0.000   1.391361   0.062164   0.017033   0.079197   0.000000   0.000000  -0.840506   0.000000   0.000000   12.0000     0.2969
    5.000     0.000   1.433188   0.065972   0.017132   0.083104   0.000000   0.000000  -0.856188   0.000000   0.000000   12.0000     0.2935
    5.500     0.000   1.474828   0.069874   0.017262   0.087137   0.000000   0.000000  -0.871757   0.000000   0.000000   12.0000     0.2903
    6.000     0.000   1.516276   0.073869   0.017394   0.091263   0.000000   0.000000  -0.887209   0.000000   0.000000   12.0000     0.2873
    6.500     0.000   1.557526   0.077954   0.017517   0.095471   0.000000   0.000000  -0.902538   0.000000   0.000000   12.0000     0.2844
    7.000     0.000   1.598572   0.082126   0.017593   0.099719   0.000000   0.000000  -0.917737   0.000000   0.000000   12.0000     0.2817
    7.500     0.000   1.639409   0.086383   0.017629   0.104012   0.000000   0.000000  -0.932802   0.000000   0.000000   12.0000     0.2792
    8.000     0.000   1.680031   0.090722   0.017795   0.108517   0.000000   0.000000  -0.947735   0.000000   0.000000   12.0000     0.2768
    8.500     0.000   1.720434   0.095141   0.018036   0.113177   0.000000   0.000000  -0.962532  -0.000000   0.000000   12.0000     0.2745
    9.000     0.000   1.760611   0.099636   0.018289   0.117925   0.000000   0.000000  -0.977184  -0.000000   0.000000   12.0000     0.2724
    9.500     0.000   1.800557   0.104205   0.018566   0.122772   0.000000   0.000000  -0.991689  -0.000000   0.000000   12.0000     0.2703
   10.000     0.000   1.840268   0.108845   0.018860   0.127705   0.000000   0.000000  -1.006041  -0.000000   0.000000   12.0000     0.2684
   10.500     0.000   1.879738   0.113554   0.019151   0.132705   0.000000   0.000000  -1.020234  -0.000000   0.000000   12.0000     0.2666
   11.000     0.000   1.918963   0.118327   0.019478   0.137805   0.000000   0.000000  -1.034269  -0.000000   0.000000   12.0000     0.2648
   11.500     0.000   1.957936   0.123162   0.019817   0.142979   0.000000   0.000000  -1.048138  -0.000000   0.000000   12.0000     0.2631
   12.000     0.000   1.996655   0.128056   0.020167   0.148223   0.000000   0.000000  -1.061837  -0.000000   0.000000   12.0000     0.2616
   12.500     0.000   2.035113   0.133005   0.020554   0.153559   0.000000   0.000000  -1.075365  -0.000000   0.000000   12.0000     0.2600
   13.000     0.000   2.073307   0.138007   0.020950   0.158957   0.000000   0.000000  -1.088716  -0.000000   0.000000   12.0000     0.2586
   13.500     0.000   2.111232   0.143058   0.021410   0.164468   0.000000   0.000000  -1.101889  -0.000000   0.000000   12.0000     0.2572
   14.000     0.000   2.148883   0.148155   0.021873   0.170028   0.000000   0.000000  -1.114877  -0.000000   0.000000   12.0000     0.2559
   14.500     0.000   2.186256   0.153295   0.022448   0.175743   0.000000   0.000000  -1.127684  -0.000000   0.000000   12.0000     0.2546
   15.000     0.000   2.223347   0.158473   0.023065   0.181538   0.000000   0.000000  -1.140302  -0.000000   0.000000   12.0000     0.2534


