xflr5 v6.57

Plane name :        R23_LR315_192in_AR_10,06
Polar name :        R23_LR315_192in_AR_10,06-12.0 m/s-VLM2
Freestream speed :  12.000 m/s


   alpha      Beta       CL          CDi        CDv        CD         CY         Cl         Cm         Cn        Cni       QInf        XCP
  -10.000     0.000   0.125042   0.000565   0.129637   0.130202   0.000000   0.000000  -0.350835   0.000000   0.000000   12.0000     1.4714
   -9.000     0.000   0.214057   0.001518   0.120225   0.121743   0.000000   0.000000  -0.385800   0.000000   0.000000   12.0000     0.9359
   -8.000     0.000   0.303042   0.002974   0.103405   0.106379   0.000000   0.000000  -0.421103   0.000000   0.000000   12.0000     0.7149
   -7.000     0.000   0.391946   0.004934   0.083012   0.087945   0.000000   0.000000  -0.456466   0.000000   0.000000   12.0000     0.5941
   -6.000     0.000   0.480715   0.007397   0.062060   0.069457   0.000000   0.000000  -0.491610   0.000000   0.000000   12.0000     0.5180
   -5.000     0.000   0.569295   0.010361   0.049620   0.059981   0.000000   0.000000  -0.526227   0.000000   0.000000   12.0000     0.4657
   -4.000     0.000   0.657632   0.013822   0.039946   0.053768   0.000000   0.000000  -0.560528   0.000000   0.000000   12.0000     0.4274
   -3.000     0.000   0.745675   0.017775   0.031916   0.049691   0.000000   0.000000  -0.594569   0.000000   0.000000   12.0000     0.3983
   -2.000     0.000   0.833370   0.022213   0.023667   0.045880   0.000000   0.000000  -0.628365   0.000000   0.000000   12.0000     0.3754
   -1.000     0.000   0.920665   0.027127   0.019811   0.046938   0.000000   0.000000  -0.661844   0.000000   0.000000   12.0000     0.3569
    0.000     0.000   1.007508   0.032508   0.017789   0.050297   0.000000   0.000000  -0.695042   0.000000   0.000000   12.0000     0.3416
    1.000     0.000   1.093848   0.038344   0.016907   0.055251   0.000000   0.000000  -0.727954   0.000000   0.000000   12.0000     0.3289
    2.000     0.000   1.179636   0.044624   0.016464   0.061087   0.000000   0.000000  -0.760557   0.000000   0.000000   12.0000     0.3180
    3.000     0.000   1.264821   0.051332   0.016781   0.068113   0.000000   0.000000  -0.792827   0.000000   0.000000   12.0000     0.3087
    4.000     0.000   1.349354   0.058454   0.016918   0.075372   0.000000   0.000000  -0.824715   0.000000   0.000000   12.0000     0.3006
    5.000     0.000   1.433188   0.065972   0.017132   0.083104   0.000000   0.000000  -0.856188   0.000000   0.000000   12.0000     0.2935
    6.000     0.000   1.516276   0.073869   0.017394   0.091263   0.000000   0.000000  -0.887209   0.000000   0.000000   12.0000     0.2873
    7.000     0.000   1.598572   0.082126   0.017593   0.099719   0.000000   0.000000  -0.917737   0.000000   0.000000   12.0000     0.2817
    8.000     0.000   1.680031   0.090722   0.017795   0.108517   0.000000   0.000000  -0.947735   0.000000   0.000000   12.0000     0.2768
    9.000     0.000   1.760611   0.099636   0.018289   0.117925   0.000000   0.000000  -0.977184  -0.000000   0.000000   12.0000     0.2724
   10.000     0.000   1.840268   0.108845   0.018860   0.127705   0.000000   0.000000  -1.006041  -0.000000   0.000000   12.0000     0.2684
   11.000     0.000   1.918963   0.118327   0.019478   0.137805   0.000000   0.000000  -1.034269  -0.000000   0.000000   12.0000     0.2648
   12.000     0.000   1.996655   0.128056   0.020167   0.148223   0.000000   0.000000  -1.061837  -0.000000   0.000000   12.0000     0.2616
   13.000     0.000   2.073307   0.138007   0.020950   0.158957   0.000000   0.000000  -1.088716  -0.000000   0.000000   12.0000     0.2586
   14.000     0.000   2.148883   0.148155   0.021873   0.170028   0.000000   0.000000  -1.114877  -0.000000   0.000000   12.0000     0.2559
   15.000     0.000   2.223347   0.158473   0.023065   0.181538   0.000000   0.000000  -1.140302  -0.000000   0.000000   12.0000     0.2534
   16.000     0.000   2.296666   0.168933   0.025116   0.194049   0.000000   0.000000  -1.165011  -0.000000   0.000000   12.0000     0.2512


