xflr5 v6.57

Plane name :        R23_PP02_8%c_216in_AR_15,02_v4
Polar name :        T1-12.0 m/s-VLM2
Freestream speed :  12.000 m/s


   alpha      Beta       CL          CDi        CDv        CD         CY         Cl         Cm         Cn        Cni       QInf        XCP
  -15.000     0.000  -0.237436   0.001191   0.173262   0.174453   0.000000  -0.000000  -0.235235  -0.000000   0.000000   12.0000    -0.4157
  -14.750     0.000  -0.213618   0.000973   0.171932   0.172905   0.000000  -0.000000  -0.244266  -0.000000   0.000000   12.0000    -0.4773
  -14.500     0.000  -0.189787   0.000779   0.165741   0.166519   0.000000  -0.000000  -0.253615  -0.000000   0.000000   12.0000    -0.5544
  -14.250     0.000  -0.165945   0.000608   0.158342   0.158950   0.000000  -0.000000  -0.263052  -0.000000   0.000000   12.0000    -0.6537
  -14.000     0.000  -0.142093   0.000460   0.152199   0.152659   0.000000  -0.000000  -0.272391  -0.000000   0.000000   12.0000    -0.7863
  -13.750     0.000  -0.118230   0.000337   0.147443   0.147780   0.000000  -0.000000  -0.281607  -0.000000   0.000000   12.0000    -0.9725
  -13.500     0.000  -0.094358   0.000237   0.142333   0.142570   0.000000  -0.000000  -0.290849  -0.000000   0.000000   12.0000    -1.2529
  -13.250     0.000  -0.070478   0.000161   0.137811   0.137972   0.000000  -0.000000  -0.300051  -0.000000   0.000000   12.0000    -1.7235
  -13.000     0.000  -0.046591   0.000109   0.133716   0.133825   0.000000  -0.000000  -0.309239  -0.000000   0.000000   12.0000    -2.6767
  -12.750     0.000  -0.022696   0.000081   0.127632   0.127713   0.000000  -0.000000  -0.318627  -0.000000  -0.000000   12.0000    -5.6375
  -12.500     0.000   0.001204   0.000077   0.121093   0.121170   0.000000  -0.000000  -0.327989  -0.000000   0.000000   12.0000   108.9586
  -12.250     0.000   0.025110   0.000098   0.112859   0.112957  -0.000000  -0.000000  -0.337488  -0.000000   0.000000   12.0000     5.3534
  -12.000     0.000   0.049020   0.000142   0.101654   0.101796  -0.000000   0.000000  -0.347150   0.000000   0.000000   12.0000     2.8082
  -11.750     0.000   0.072934   0.000211   0.093492   0.093704  -0.000000   0.000000  -0.356624   0.000000   0.000000   12.0000     1.9317
  -11.500     0.000   0.096851   0.000305   0.087721   0.088026  -0.000000   0.000000  -0.365920   0.000000   0.000000   12.0000     1.4880
  -11.250     0.000   0.120770   0.000423   0.078341   0.078764  -0.000000   0.000000  -0.375430   0.000000   0.000000   12.0000     1.2200
  -11.000     0.000   0.144690   0.000565   0.073051   0.073616  -0.000000   0.000000  -0.384687   0.000000   0.000000   12.0000     1.0406
  -10.750     0.000   0.168611   0.000732   0.066663   0.067396  -0.000000   0.000000  -0.393964   0.000000   0.000000   12.0000     0.9120
  -10.500     0.000   0.192532   0.000924   0.060532   0.061456  -0.000000   0.000000  -0.403227   0.000000   0.000000   12.0000     0.8154
  -10.250     0.000   0.216452   0.001140   0.054186   0.055326  -0.000000   0.000000  -0.412498   0.000000   0.000000   12.0000     0.7401
  -10.000     0.000   0.240370   0.001381   0.048760   0.050141  -0.000000   0.000000  -0.421722   0.000000   0.000000   12.0000     0.6798
   -9.750     0.000   0.264286   0.001646   0.044195   0.045841  -0.000000   0.000000  -0.430896   0.000000   0.000000   12.0000     0.6305
   -9.500     0.000   0.288199   0.001937   0.039410   0.041347  -0.000000   0.000000  -0.440077   0.000000   0.000000   12.0000     0.5893
   -9.250     0.000   0.312107   0.002251   0.035057   0.037309  -0.000000   0.000000  -0.449223   0.000000   0.000000   12.0000     0.5544
   -9.000     0.000   0.336011   0.002591   0.031799   0.034390  -0.000000   0.000000  -0.458291   0.000000   0.000000   12.0000     0.5245
   -8.750     0.000   0.359909   0.002955   0.029718   0.032673  -0.000000   0.000000  -0.467299   0.000000   0.000000   12.0000     0.4985
   -8.500     0.000   0.383800   0.003345   0.028326   0.031670  -0.000000   0.000000  -0.476276   0.000000   0.000000   12.0000     0.4758
   -8.250     0.000   0.407685   0.003758   0.027297   0.031055  -0.000000   0.000000  -0.485229   0.000000   0.000000   12.0000     0.4557
   -8.000     0.000   0.431561   0.004197   0.025986   0.030183  -0.000000   0.000000  -0.494202   0.000000   0.000000   12.0000     0.4379
   -7.750     0.000   0.455429   0.004660   0.024601   0.029261  -0.000000   0.000000  -0.503180   0.000000   0.000000   12.0000     0.4219
   -7.500     0.000   0.479288   0.005148   0.023263   0.028411  -0.000000   0.000000  -0.512153   0.000000   0.000000   12.0000     0.4075
   -7.250     0.000   0.503136   0.005661   0.021998   0.027659  -0.000000   0.000000  -0.521121   0.000000   0.000000   12.0000     0.3945
   -7.000     0.000   0.526973   0.006198   0.020742   0.026940  -0.000000   0.000000  -0.530086   0.000000   0.000000   12.0000     0.3827
   -6.750     0.000   0.550798   0.006760   0.019487   0.026247  -0.000000   0.000000  -0.539047   0.000000   0.000000   12.0000     0.3719
   -6.500     0.000   0.574610   0.007346   0.018271   0.025617  -0.000000   0.000000  -0.548003   0.000000   0.000000   12.0000     0.3620
   -6.250     0.000   0.598409   0.007957   0.017361   0.025318  -0.000000   0.000000  -0.556942   0.000000   0.000000   12.0000     0.3529
   -6.000     0.000   0.622194   0.008592   0.016716   0.025308  -0.000000   0.000000  -0.565866   0.000000   0.000000   12.0000     0.3444
   -5.750     0.000   0.645964   0.009252   0.016259   0.025511  -0.000000   0.000000  -0.574778   0.000000   0.000000   12.0000     0.3366
   -5.500     0.000   0.669719   0.009936   0.015957   0.025893  -0.000000   0.000000  -0.583679   0.000000   0.000000   12.0000     0.3294
   -5.250     0.000   0.693457   0.010645   0.015671   0.026316  -0.000000   0.000000  -0.592575   0.000000   0.000000   12.0000     0.3226
   -5.000     0.000   0.717177   0.011378   0.015385   0.026763  -0.000000   0.000000  -0.601466   0.000000   0.000000   12.0000     0.3163
   -4.750     0.000   0.740880   0.012135   0.015111   0.027245  -0.000000   0.000000  -0.610352   0.000000   0.000000   12.0000     0.3105
   -4.500     0.000   0.764563   0.012916   0.014853   0.027769  -0.000000   0.000000  -0.619231   0.000000   0.000000   12.0000     0.3049
   -4.250     0.000   0.788228   0.013721   0.014569   0.028290  -0.000000   0.000000  -0.628105   0.000000   0.000000   12.0000     0.2997
   -4.000     0.000   0.811871   0.014550   0.014349   0.028899  -0.000000   0.000000  -0.636969   0.000000   0.000000   12.0000     0.2948
   -3.750     0.000   0.835494   0.015403   0.014255   0.029658  -0.000000   0.000000  -0.645822   0.000000   0.000000   12.0000     0.2902
   -3.500     0.000   0.859095   0.016280   0.014243   0.030523  -0.000000   0.000000  -0.654666   0.000000   0.000000   12.0000     0.2859
   -3.250     0.000   0.882673   0.017180   0.014261   0.031441  -0.000000   0.000000  -0.663500   0.000000   0.000000   12.0000     0.2818
   -3.000     0.000   0.906228   0.018104   0.014301   0.032405  -0.000000   0.000000  -0.672325   0.000000   0.000000   12.0000     0.2779
   -2.750     0.000   0.929759   0.019051   0.014356   0.033407  -0.000000   0.000000  -0.681140   0.000000   0.000000   12.0000     0.2742
   -2.500     0.000   0.953264   0.020022   0.014416   0.034438  -0.000000   0.000000  -0.689944   0.000000   0.000000   12.0000     0.2706
   -2.250     0.000   0.976745   0.021016   0.014471   0.035486  -0.000000   0.000000  -0.698738   0.000000   0.000000   12.0000     0.2673
   -2.000     0.000   1.000198   0.022033   0.014525   0.036558  -0.000000   0.000000  -0.707520   0.000000   0.000000   12.0000     0.2641
   -1.750     0.000   1.023625   0.023073   0.014571   0.037644  -0.000000   0.000000  -0.716289   0.000000   0.000000   12.0000     0.2611
   -1.500     0.000   1.047023   0.024136   0.014632   0.038768  -0.000000   0.000000  -0.725046   0.000000   0.000000   12.0000     0.2582
   -1.250     0.000   1.070393   0.025222   0.014703   0.039925  -0.000000   0.000000  -0.733789   0.000000   0.000000   12.0000     0.2554
   -1.000     0.000   1.093733   0.026330   0.014770   0.041100  -0.000000   0.000000  -0.742518  -0.000000   0.000000   12.0000     0.2527
   -0.750     0.000   1.117044   0.027461   0.014832   0.042293  -0.000000   0.000000  -0.751232  -0.000000   0.000000   12.0000     0.2502
   -0.500     0.000   1.140323   0.028614   0.014887   0.043500  -0.000000   0.000000  -0.759931   0.000000   0.000000   12.0000     0.2478
   -0.250     0.000   1.163571   0.029789   0.014933   0.044722  -0.000000   0.000000  -0.768613   0.000000   0.000000   12.0000     0.2454
    0.000     0.000   1.186786   0.030986   0.014986   0.045972  -0.000000   0.000000  -0.777279  -0.000000   0.000000   12.0000     0.2432
    0.250     0.000   1.209968   0.032205   0.015052   0.047257  -0.000000   0.000000  -0.785927  -0.000000   0.000000   12.0000     0.2410
    0.500     0.000   1.233116   0.033446   0.015110   0.048556  -0.000000   0.000000  -0.794557  -0.000000   0.000000   12.0000     0.2390
    0.750     0.000   1.256230   0.034708   0.015166   0.049874  -0.000000   0.000000  -0.803168  -0.000000   0.000000   12.0000     0.2370
    1.000     0.000   1.279308   0.035992   0.015233   0.051225  -0.000000   0.000000  -0.811760  -0.000000   0.000000   12.0000     0.2351
    1.250     0.000   1.302350   0.037297   0.015305   0.052601  -0.000000   0.000000  -0.820332  -0.000000   0.000000   12.0000     0.2332
    1.500     0.000   1.325356   0.038622   0.015370   0.053993  -0.000000   0.000000  -0.828882  -0.000000   0.000000   12.0000     0.2314
    1.750     0.000   1.348324   0.039969   0.015453   0.055422  -0.000000   0.000000  -0.837412  -0.000000   0.000000   12.0000     0.2297
    2.000     0.000   1.371254   0.041336   0.015540   0.056876  -0.000000   0.000000  -0.845920  -0.000000   0.000000   12.0000     0.2280
    2.250     0.000   1.394144   0.042724   0.015628   0.058352  -0.000000   0.000000  -0.854405  -0.000000   0.000000   12.0000     0.2264
    2.500     0.000   1.416996   0.044131   0.015725   0.059857  -0.000000   0.000000  -0.862867  -0.000000   0.000000   12.0000     0.2249
    2.750     0.000   1.439806   0.045559   0.015829   0.061389  -0.000000   0.000000  -0.871305  -0.000000   0.000000   12.0000     0.2234
    3.000     0.000   1.462576   0.047007   0.015928   0.062935  -0.000000   0.000000  -0.879719  -0.000000   0.000000   12.0000     0.2220
    3.250     0.000   1.485304   0.048474   0.016032   0.064507  -0.000000   0.000000  -0.888108  -0.000000   0.000000   12.0000     0.2206
    3.500     0.000   1.507990   0.049961   0.016124   0.066085  -0.000000   0.000000  -0.896471  -0.000000   0.000000   12.0000     0.2192
    3.750     0.000   1.530632   0.051467   0.016194   0.067661  -0.000000   0.000000  -0.904806  -0.000000   0.000000   12.0000     0.2179
    4.000     0.000   1.553230   0.052992   0.016167   0.069158  -0.000000   0.000000  -0.913113   0.000000   0.000000   12.0000     0.2166
    4.250     0.000   1.575784   0.054535   0.016136   0.070672  -0.000000   0.000000  -0.921391  -0.000000   0.000000   12.0000     0.2154
    4.500     0.000   1.598293   0.056097   0.016284   0.072381  -0.000000   0.000000  -0.929645  -0.000000   0.000000   12.0000     0.2142
    4.750     0.000   1.620756   0.057678   0.016479   0.074157  -0.000000   0.000000  -0.937872  -0.000000   0.000000   12.0000     0.2130
    5.000     0.000   1.643172   0.059276   0.016678   0.075954  -0.000000   0.000000  -0.946069  -0.000000   0.000000   12.0000     0.2119
    5.250     0.000   1.665541   0.060892   0.016896   0.077788  -0.000000   0.000000  -0.954237  -0.000000   0.000000   12.0000     0.2108
    5.500     0.000   1.687862   0.062526   0.017132   0.079658  -0.000000   0.000000  -0.962376  -0.000000   0.000000   12.0000     0.2097
    5.750     0.000   1.710134   0.064177   0.017377   0.081555  -0.000000   0.000000  -0.970483  -0.000000   0.000000   12.0000     0.2087
    6.000     0.000   1.732357   0.065846   0.017649   0.083495  -0.000000   0.000000  -0.978561  -0.000000   0.000000   12.0000     0.2077
    6.250     0.000   1.754530   0.067531   0.017928   0.085458  -0.000000   0.000000  -0.986606  -0.000000   0.000000   12.0000     0.2067
    6.500     0.000   1.776653   0.069232   0.018233   0.087465  -0.000000   0.000000  -0.994619  -0.000000   0.000000   12.0000     0.2057
    6.750     0.000   1.798724   0.070950   0.018551   0.089501  -0.000000   0.000000  -1.002600  -0.000000   0.000000   12.0000     0.2048
    7.000     0.000   1.820743   0.072684   0.018874   0.091558  -0.000000   0.000000  -1.010547  -0.000000   0.000000   12.0000     0.2039
    7.250     0.000   1.842710   0.074434   0.019234   0.093668  -0.000000   0.000000  -1.018462  -0.000000   0.000000   12.0000     0.2030
    7.500     0.000   1.864624   0.076199   0.019611   0.095810  -0.000000   0.000000  -1.026342  -0.000000   0.000000   12.0000     0.2022
    7.750     0.000   1.886484   0.077980   0.020027   0.098006  -0.000000   0.000000  -1.034188  -0.000000   0.000000   12.0000     0.2013
    8.000     0.000   1.908289   0.079775   0.020472   0.100247  -0.000000   0.000000  -1.042000  -0.000000   0.000000   12.0000     0.2005
    8.250     0.000   1.930039   0.081585   0.020945   0.102531  -0.000000   0.000000  -1.049777  -0.000000   0.000000   12.0000     0.1997
    8.500     0.000   1.951734   0.083410   0.021493   0.104903  -0.000000   0.000000  -1.057521  -0.000000   0.000000   12.0000     0.1989
    8.750     0.000   1.973372   0.085249   0.022093   0.107342  -0.000000   0.000000  -1.065229  -0.000000   0.000000   12.0000     0.1982
    9.000     0.000   1.994953   0.087101   0.022827   0.109928  -0.000000   0.000000  -1.072907  -0.000000   0.000000   12.0000     0.1974
    9.250     0.000   2.016477   0.088967   0.023751   0.112719  -0.000000   0.000000  -1.080557  -0.000000   0.000000   12.0000     0.1967
    9.500     0.000   2.037943   0.090847   0.025105   0.115951  -0.000000   0.000000  -1.088190  -0.000000   0.000000   12.0000     0.1960


